<?xml version="1.0" encoding="UTF-8"?>

<!-- generated on 2022-10-20 14:42:14 by Eclipse SUMO netedit Version v1_14_1+1008-de138fee043
<configuration xmlns:xsi="http://www.w3.org/2001/XMLSchema-instance" xsi:noNamespaceSchemaLocation="http://sumo.dlr.de/xsd/netconvertConfiguration.xsd">

    <input>
        <sumo-net-file value="C:\Users\thoma\OneDrive\Documents\Thesis\drafts\thesis_sumo\src\case_study_real_world\config\realworld.net.xml"/>
    </input>

    <output>
        <output-file value="C:\Users\thoma\OneDrive\Documents\Thesis\drafts\thesis_sumo\src\case_study_real_world\config\realworld.net.xml"/>
        <output.street-names value="true"/>
    </output>

    <processing>
        <geometry.min-radius.fix.railways value="false"/>
        <geometry.max-grade.fix value="false"/>
        <offset.disable-normalization value="true"/>
        <lefthand value="false"/>
    </processing>

    <junctions>
        <no-turnarounds value="true"/>
        <junctions.corner-detail value="5"/>
        <junctions.limit-turn-speed value="5.5"/>
        <rectangular-lane-cut value="false"/>
    </junctions>

    <pedestrian>
        <walkingareas value="false"/>
    </pedestrian>

</configuration>
-->

<net version="1.9" junctionCornerDetail="5" limitTurnSpeed="5.50" xmlns:xsi="http://www.w3.org/2001/XMLSchema-instance" xsi:noNamespaceSchemaLocation="http://sumo.dlr.de/xsd/net_file.xsd">

    <location netOffset="-625538.75,-4838127.29" convBoundary="2762.14,1580.62,5147.50,3772.52" origBoundary="-79.441718,43.685354,-79.350963,43.724141" projParameter="+proj=utm +zone=17 +ellps=WGS84 +datum=WGS84 +units=m +no_defs"/>

    <type id="highway.bridleway" priority="1" numLanes="1" speed="2.78" allow="pedestrian" oneway="1" width="2.00"/>
    <type id="highway.bus_guideway" priority="1" numLanes="1" speed="27.78" allow="bus" oneway="1"/>
    <type id="highway.cycleway" priority="1" numLanes="1" speed="5.56" allow="bicycle" oneway="0" width="1.00"/>
    <type id="highway.footway" priority="1" numLanes="1" speed="2.78" allow="pedestrian" oneway="1" width="2.00"/>
    <type id="highway.ford" priority="1" numLanes="1" speed="2.78" allow="army" oneway="0"/>
    <type id="highway.living_street" priority="2" numLanes="1" speed="2.78" disallow="tram rail_urban rail rail_electric rail_fast ship" oneway="0"/>
    <type id="highway.motorway" priority="14" numLanes="2" speed="39.44" allow="private emergency authority army vip passenger hov taxi bus coach delivery truck trailer motorcycle evehicle custom1 custom2" oneway="1"/>
    <type id="highway.motorway_link" priority="9" numLanes="1" speed="22.22" allow="private emergency authority army vip passenger hov taxi bus coach delivery truck trailer motorcycle evehicle custom1 custom2" oneway="1"/>
    <type id="highway.path" priority="1" numLanes="1" speed="5.56" allow="pedestrian bicycle" oneway="0" width="2.00"/>
    <type id="highway.pedestrian" priority="1" numLanes="1" speed="2.78" allow="pedestrian" oneway="1" width="2.00"/>
    <type id="highway.primary" priority="12" numLanes="2" speed="27.78" disallow="tram rail_urban rail rail_electric rail_fast ship" oneway="0"/>
    <type id="highway.primary_link" priority="7" numLanes="1" speed="22.22" disallow="tram rail_urban rail rail_electric rail_fast ship" oneway="0"/>
    <type id="highway.raceway" priority="15" numLanes="2" speed="83.33" allow="vip" oneway="0"/>
    <type id="highway.residential" priority="3" numLanes="1" speed="13.89" disallow="tram rail_urban rail rail_electric rail_fast ship" oneway="0"/>
    <type id="highway.secondary" priority="11" numLanes="1" speed="27.78" disallow="tram rail_urban rail rail_electric rail_fast ship" oneway="0"/>
    <type id="highway.secondary_link" priority="6" numLanes="1" speed="22.22" disallow="tram rail_urban rail rail_electric rail_fast ship" oneway="0"/>
    <type id="highway.service" priority="1" numLanes="1" speed="5.56" allow="pedestrian delivery bicycle" oneway="0"/>
    <type id="highway.stairs" priority="1" numLanes="1" speed="1.39" allow="pedestrian" oneway="1" width="2.00"/>
    <type id="highway.step" priority="1" numLanes="1" speed="1.39" allow="pedestrian" oneway="1" width="2.00"/>
    <type id="highway.steps" priority="1" numLanes="1" speed="1.39" allow="pedestrian" oneway="1" width="2.00"/>
    <type id="highway.tertiary" priority="10" numLanes="1" speed="22.22" disallow="tram rail_urban rail rail_electric rail_fast ship" oneway="0"/>
    <type id="highway.tertiary_link" priority="5" numLanes="1" speed="22.22" disallow="tram rail_urban rail rail_electric rail_fast ship" oneway="0"/>
    <type id="highway.track" priority="1" numLanes="1" speed="5.56" allow="pedestrian motorcycle moped bicycle" oneway="0"/>
    <type id="highway.trunk" priority="13" numLanes="2" speed="27.78" disallow="pedestrian bicycle tram rail_urban rail rail_electric rail_fast ship" oneway="0"/>
    <type id="highway.trunk_link" priority="8" numLanes="1" speed="22.22" disallow="pedestrian bicycle tram rail_urban rail rail_electric rail_fast ship" oneway="0"/>
    <type id="highway.unclassified" priority="4" numLanes="1" speed="13.89" disallow="tram rail_urban rail rail_electric rail_fast ship" oneway="0"/>
    <type id="highway.unsurfaced" priority="1" numLanes="1" speed="8.33" disallow="tram rail_urban rail rail_electric rail_fast ship" oneway="0"/>
    <type id="railway.highspeed" priority="21" numLanes="1" speed="69.44" allow="rail_fast" oneway="1"/>
    <type id="railway.light_rail" priority="19" numLanes="1" speed="27.78" allow="rail_urban" oneway="1"/>
    <type id="railway.preserved" priority="16" numLanes="1" speed="27.78" allow="rail" oneway="1"/>
    <type id="railway.rail" priority="20" numLanes="1" speed="44.44" allow="rail" oneway="1"/>
    <type id="railway.subway" priority="18" numLanes="1" speed="27.78" allow="rail_urban" oneway="1"/>
    <type id="railway.tram" priority="17" numLanes="1" speed="13.89" allow="tram" oneway="1"/>

    <edge id=":1072216565_0" function="internal">
        <lane id=":1072216565_0_0" index="0" disallow="tram rail_urban rail rail_electric rail_fast ship" speed="11.11" length="14.49" shape="3425.78,3550.94 3411.85,3546.92"/>
    </edge>
    <edge id=":1072216565_1" function="internal">
        <lane id=":1072216565_1_0" index="0" disallow="tram rail_urban rail rail_electric rail_fast ship" speed="8.06" length="4.12" shape="3425.78,3550.94 3422.23,3549.38 3422.06,3549.20"/>
    </edge>
    <edge id=":1072216565_2" function="internal">
        <lane id=":1072216565_2_0" index="0" disallow="tram rail_urban rail rail_electric rail_fast ship" speed="3.65" length="1.44" shape="3425.78,3550.94 3424.84,3549.85"/>
    </edge>
    <edge id=":1072216565_9" function="internal">
        <lane id=":1072216565_9_0" index="0" disallow="tram rail_urban rail rail_electric rail_fast ship" speed="8.06" length="10.17" shape="3422.06,3549.20 3420.01,3547.03 3419.14,3543.90 3419.61,3539.99"/>
    </edge>
    <edge id=":1072216565_10" function="internal">
        <lane id=":1072216565_10_0" index="0" disallow="tram rail_urban rail rail_electric rail_fast ship" speed="3.65" length="3.23" shape="3424.84,3549.85 3424.67,3548.97 3425.27,3548.31 3426.64,3547.86"/>
    </edge>
    <edge id=":1072216565_3" function="internal">
        <lane id=":1072216565_3_0" index="0" disallow="tram rail_urban rail rail_electric rail_fast ship" speed="6.59" length="9.20" shape="3422.72,3540.78 3422.41,3543.31 3422.96,3545.34 3424.37,3546.85 3426.64,3547.86"/>
    </edge>
    <edge id=":1072216565_4" function="internal">
        <lane id=":1072216565_4_0" index="0" disallow="tram rail_urban rail rail_electric rail_fast ship" speed="7.95" length="14.33" shape="3422.72,3540.78 3421.17,3544.42 3418.85,3546.66 3415.74,3547.50 3411.85,3546.92"/>
    </edge>
    <edge id=":1072216565_5" function="internal">
        <lane id=":1072216565_5_0" index="0" disallow="tram rail_urban rail rail_electric rail_fast ship" speed="3.65" length="4.67" shape="3422.72,3540.78 3421.65,3541.74 3420.77,3541.94 3420.09,3541.35 3419.61,3539.99"/>
    </edge>
    <edge id=":1072216565_6" function="internal">
        <lane id=":1072216565_6_0" index="0" disallow="tram rail_urban rail rail_electric rail_fast ship" speed="6.44" length="9.03" shape="3412.77,3543.86 3415.22,3544.22 3417.18,3543.70 3418.64,3542.29 3419.61,3539.99"/>
    </edge>
    <edge id=":1072216565_7" function="internal">
        <lane id=":1072216565_7_0" index="0" disallow="tram rail_urban rail rail_electric rail_fast ship" speed="11.11" length="14.43" shape="3412.77,3543.86 3426.64,3547.86"/>
    </edge>
    <edge id=":1072216565_8" function="internal">
        <lane id=":1072216565_8_0" index="0" disallow="tram rail_urban rail rail_electric rail_fast ship" speed="3.65" length="1.44" shape="3412.77,3543.86 3413.69,3544.97"/>
    </edge>
    <edge id=":1072216565_11" function="internal">
        <lane id=":1072216565_11_0" index="0" disallow="tram rail_urban rail rail_electric rail_fast ship" speed="3.65" length="3.23" shape="3413.69,3544.97 3413.84,3545.85 3413.23,3546.50 3411.85,3546.92"/>
    </edge>
    <edge id=":1072216569_0" function="internal">
        <lane id=":1072216569_0_0" index="0" disallow="tram rail_urban rail rail_electric rail_fast ship" speed="3.65" length="4.67" shape="3432.47,3491.82 3433.56,3490.86 3434.43,3490.68 3435.10,3491.28 3435.57,3492.64"/>
    </edge>
    <edge id=":108352434_0" function="internal">
        <lane id=":108352434_0_0" index="0" disallow="tram rail_urban rail rail_electric rail_fast ship" speed="8.33" length="13.30" shape="4845.44,2010.43 4842.94,2010.26 4840.10,2010.96 4836.90,2012.54 4833.35,2014.97"/>
    </edge>
    <edge id=":108352434_1" function="internal">
        <lane id=":108352434_1_0" index="0" disallow="tram rail_urban rail rail_electric rail_fast ship" speed="8.33" length="15.83" shape="4845.44,2010.43 4830.23,2006.04"/>
    </edge>
    <edge id=":108352434_2" function="internal">
        <lane id=":108352434_2_0" index="0" disallow="tram rail_urban rail rail_electric rail_fast ship" speed="3.65" length="4.67" shape="4845.44,2010.43 4844.48,2009.36 4844.29,2008.48 4844.88,2007.81 4846.24,2007.34"/>
    </edge>
    <edge id=":108352434_3" function="internal">
        <lane id=":108352434_3_0" index="0" disallow="tram rail_urban rail rail_electric rail_fast ship" speed="8.33" length="15.70" shape="4831.16,2002.98 4846.24,2007.34"/>
    </edge>
    <edge id=":108352434_4" function="internal">
        <lane id=":108352434_4_0" index="0" disallow="tram rail_urban rail rail_electric rail_fast ship" speed="7.38" length="17.58" shape="4831.16,2002.98 4836.09,2005.17 4838.09,2007.90 4837.18,2011.17 4833.35,2014.97"/>
    </edge>
    <edge id=":108352434_5" function="internal">
        <lane id=":108352434_5_0" index="0" disallow="tram rail_urban rail rail_electric rail_fast ship" speed="3.65" length="4.67" shape="4831.16,2002.98 4832.07,2004.09 4832.22,2004.97 4831.61,2005.62 4830.23,2006.04"/>
    </edge>
    <edge id=":108352434_6" function="internal">
        <lane id=":108352434_6_0" index="0" disallow="tram rail_urban rail rail_electric rail_fast ship" speed="5.58" length="9.38" shape="4831.39,2012.44 4833.44,2010.41 4833.93,2008.66 4832.85,2007.21 4830.23,2006.04"/>
    </edge>
    <edge id=":108352434_7" function="internal">
        <lane id=":108352434_7_0" index="0" disallow="tram rail_urban rail rail_electric rail_fast ship" speed="8.33" length="16.20" shape="4831.39,2012.44 4835.58,2009.61 4839.46,2007.81 4843.01,2007.05 4846.24,2007.34"/>
    </edge>
    <edge id=":108352434_8" function="internal">
        <lane id=":108352434_8_0" index="0" disallow="tram rail_urban rail rail_electric rail_fast ship" speed="3.65" length="4.67" shape="4831.39,2012.44 4832.83,2012.34 4833.64,2012.73 4833.81,2013.61 4833.35,2014.97"/>
    </edge>
    <edge id=":108352444_0" function="internal">
        <lane id=":108352444_0_0" index="0" disallow="tram rail_urban rail rail_electric rail_fast ship" speed="5.57" length="9.31" shape="4760.45,2077.29 4758.55,2079.39 4758.17,2081.14 4759.32,2082.54 4761.99,2083.59"/>
    </edge>
    <edge id=":108352444_1" function="internal">
        <lane id=":108352444_1_0" index="0" disallow="tram rail_urban rail rail_electric rail_fast ship" speed="8.33" length="16.63" shape="4760.45,2077.29 4747.65,2087.92"/>
    </edge>
    <edge id=":108352444_2" function="internal">
        <lane id=":108352444_2_0" index="0" disallow="tram rail_urban rail rail_electric rail_fast ship" speed="3.65" length="4.68" shape="4760.45,2077.29 4759.03,2077.53 4758.19,2077.22 4757.93,2076.36 4758.25,2074.96"/>
    </edge>
    <edge id=":108352444_3" function="internal">
        <lane id=":108352444_3_0" index="0" disallow="tram rail_urban rail rail_electric rail_fast ship" speed="8.33" length="15.05" shape="4744.43,2079.04 4747.78,2079.56 4751.20,2079.05 4754.69,2077.52 4758.25,2074.96"/>
    </edge>
    <edge id=":108352444_4" function="internal">
        <lane id=":108352444_4_0" index="0" disallow="tram rail_urban rail rail_electric rail_fast ship" speed="8.33" length="18.15" shape="4744.43,2079.04 4761.99,2083.59"/>
    </edge>
    <edge id=":108352444_5" function="internal">
        <lane id=":108352444_5_0" index="0" disallow="tram rail_urban rail rail_electric rail_fast ship" speed="6.53" length="13.37" shape="4744.43,2079.04 4748.56,2080.82 4750.48,2082.89 4750.18,2085.26 4747.65,2087.92"/>
    </edge>
    <edge id=":108352444_6" function="internal">
        <lane id=":108352444_6_0" index="0" disallow="tram rail_urban rail rail_electric rail_fast ship" speed="8.33" length="16.32" shape="4745.70,2085.38 4758.25,2074.96"/>
    </edge>
    <edge id=":108352444_7" function="internal">
        <lane id=":108352444_7_0" index="0" disallow="tram rail_urban rail rail_electric rail_fast ship" speed="8.33" length="16.94" shape="4745.70,2085.38 4748.89,2083.60 4752.66,2082.70 4757.03,2082.70 4761.99,2083.59"/>
    </edge>
    <edge id=":108352444_8" function="internal">
        <lane id=":108352444_8_0" index="0" disallow="tram rail_urban rail rail_electric rail_fast ship" speed="3.65" length="4.67" shape="4745.70,2085.38 4747.14,2085.28 4747.94,2085.67 4748.12,2086.55 4747.65,2087.92"/>
    </edge>
    <edge id=":108352480_0" function="internal">
        <lane id=":108352480_0_0" index="0" disallow="tram rail_urban rail rail_electric rail_fast ship" speed="6.59" length="9.25" shape="4609.07,2262.80 4606.51,2262.42 4604.45,2262.91 4602.89,2264.28 4601.84,2266.52"/>
    </edge>
    <edge id=":108352480_1" function="internal">
        <lane id=":108352480_1_0" index="0" disallow="tram rail_urban rail rail_electric rail_fast ship" speed="8.33" length="14.62" shape="4609.07,2262.80 4595.11,2258.47"/>
    </edge>
    <edge id=":108352480_2" function="internal">
        <lane id=":108352480_2_0" index="0" disallow="tram rail_urban rail rail_electric rail_fast ship" speed="7.87" length="14.49" shape="4609.07,2262.80 4605.41,2261.14 4603.27,2258.73 4602.62,2255.56 4603.49,2251.64"/>
    </edge>
    <edge id=":108352480_3" function="internal">
        <lane id=":108352480_3_0" index="0" disallow="tram rail_urban rail rail_electric rail_fast ship" speed="3.65" length="4.67" shape="4609.07,2262.80 4608.14,2261.70 4607.98,2260.82 4608.59,2260.16 4609.96,2259.73"/>
    </edge>
    <edge id=":108352480_4" function="internal">
        <lane id=":108352480_4_0" index="0" disallow="tram rail_urban rail rail_electric rail_fast ship" speed="6.05" length="9.70" shape="4606.55,2252.81 4605.42,2255.07 4605.61,2256.98 4607.13,2258.53 4609.96,2259.73"/>
    </edge>
    <edge id=":108352480_5" function="internal">
        <lane id=":108352480_5_0" index="0" disallow="tram rail_urban rail rail_electric rail_fast ship" speed="8.33" length="14.58" shape="4606.55,2252.81 4604.77,2255.98 4603.62,2259.38 4602.76,2262.92 4601.84,2266.52"/>
    </edge>
    <edge id=":108352480_6" function="internal">
        <lane id=":108352480_6_0" index="0" disallow="tram rail_urban rail rail_electric rail_fast ship" speed="8.33" length="13.67" shape="4606.55,2252.81 4603.74,2256.01 4600.90,2258.02 4598.02,2258.84 4595.11,2258.47"/>
    </edge>
    <edge id=":108352480_7" function="internal">
        <lane id=":108352480_7_0" index="0" disallow="tram rail_urban rail rail_electric rail_fast ship" speed="3.80" length="4.78" shape="4606.55,2252.81 4605.35,2253.66 4604.44,2253.75 4603.82,2253.08 4603.49,2251.64"/>
    </edge>
    <edge id=":108352480_8" function="internal">
        <lane id=":108352480_8_0" index="0" disallow="tram rail_urban rail rail_electric rail_fast ship" speed="6.71" length="9.37" shape="4596.11,2255.43 4598.56,2255.85 4600.60,2255.36 4602.25,2253.96 4603.49,2251.64"/>
    </edge>
    <edge id=":108352480_9" function="internal">
        <lane id=":108352480_9_0" index="0" disallow="tram rail_urban rail rail_electric rail_fast ship" speed="8.33" length="14.50" shape="4596.11,2255.43 4609.96,2259.73"/>
    </edge>
    <edge id=":108352480_10" function="internal">
        <lane id=":108352480_10_0" index="0" disallow="tram rail_urban rail rail_electric rail_fast ship" speed="8.07" length="14.14" shape="4596.11,2255.43 4599.56,2257.14 4601.66,2259.56 4602.42,2262.69 4601.84,2266.52"/>
    </edge>
    <edge id=":108352480_11" function="internal">
        <lane id=":108352480_11_0" index="0" disallow="tram rail_urban rail rail_electric rail_fast ship" speed="3.65" length="4.67" shape="4596.11,2255.43 4597.00,2256.57 4597.13,2257.45 4596.50,2258.09 4595.11,2258.47"/>
    </edge>
    <edge id=":108352480_12" function="internal">
        <lane id=":108352480_12_0" index="0" disallow="tram rail_urban rail rail_electric rail_fast ship" speed="6.59" length="9.09" shape="4598.77,2265.60 4599.15,2263.14 4598.66,2261.12 4597.32,2259.57 4595.11,2258.47"/>
    </edge>
    <edge id=":108352480_13" function="internal">
        <lane id=":108352480_13_0" index="0" disallow="tram rail_urban rail rail_electric rail_fast ship" speed="8.33" length="14.73" shape="4598.77,2265.60 4603.49,2251.64"/>
    </edge>
    <edge id=":108352480_14" function="internal">
        <lane id=":108352480_14_0" index="0" disallow="tram rail_urban rail rail_electric rail_fast ship" speed="8.07" length="14.39" shape="4598.77,2265.60 4600.42,2262.08 4602.83,2259.93 4606.01,2259.15 4609.96,2259.73"/>
    </edge>
    <edge id=":108352480_15" function="internal">
        <lane id=":108352480_15_0" index="0" disallow="tram rail_urban rail rail_electric rail_fast ship" speed="3.65" length="4.67" shape="4598.77,2265.60 4599.88,2264.68 4600.76,2264.53 4601.42,2265.14 4601.84,2266.52"/>
    </edge>
    <edge id=":108352520_0" function="internal">
        <lane id=":108352520_0_0" index="0" disallow="tram rail_urban rail rail_electric rail_fast ship" speed="6.51" length="9.03" shape="4519.53,2133.16 4517.09,2132.74 4515.10,2133.20 4513.56,2134.55 4512.48,2136.77"/>
    </edge>
    <edge id=":108352520_1" function="internal">
        <lane id=":108352520_1_0" index="0" disallow="tram rail_urban rail rail_electric rail_fast ship" speed="8.06" length="14.17" shape="4519.53,2133.16 4516.03,2131.46 4513.89,2129.06 4513.10,2125.95 4513.66,2122.14"/>
    </edge>
    <edge id=":108352520_2" function="internal">
        <lane id=":108352520_2_0" index="0" disallow="tram rail_urban rail rail_electric rail_fast ship" speed="3.65" length="4.67" shape="4519.53,2133.16 4518.63,2132.03 4518.49,2131.14 4519.12,2130.51 4520.50,2130.11"/>
    </edge>
    <edge id=":108352520_3" function="internal">
        <lane id=":108352520_3_0" index="0" disallow="tram rail_urban rail rail_electric rail_fast ship" speed="6.58" length="9.09" shape="4516.72,2123.05 4516.37,2125.49 4516.88,2127.48 4518.26,2129.02 4520.50,2130.11"/>
    </edge>
    <edge id=":108352520_4" function="internal">
        <lane id=":108352520_4_0" index="0" disallow="tram rail_urban rail rail_electric rail_fast ship" speed="8.33" length="14.36" shape="4516.72,2123.05 4512.48,2136.77"/>
    </edge>
    <edge id=":108352520_5" function="internal">
        <lane id=":108352520_5_0" index="0" disallow="tram rail_urban rail rail_electric rail_fast ship" speed="3.65" length="4.67" shape="4516.72,2123.05 4515.62,2123.97 4514.74,2124.13 4514.08,2123.52 4513.66,2122.14"/>
    </edge>
    <edge id=":108352520_6" function="internal">
        <lane id=":108352520_6_0" index="0" disallow="tram rail_urban rail rail_electric rail_fast ship" speed="8.33" length="14.29" shape="4509.43,2135.80 4513.66,2122.14"/>
    </edge>
    <edge id=":108352520_7" function="internal">
        <lane id=":108352520_7_0" index="0" disallow="tram rail_urban rail rail_electric rail_fast ship" speed="8.00" length="14.19" shape="4509.43,2135.80 4511.14,2132.30 4513.55,2130.19 4516.67,2129.46 4520.50,2130.11"/>
    </edge>
    <edge id=":108352520_8" function="internal">
        <lane id=":108352520_8_0" index="0" disallow="tram rail_urban rail rail_electric rail_fast ship" speed="3.65" length="4.67" shape="4509.43,2135.80 4510.56,2134.90 4511.45,2134.76 4512.09,2135.39 4512.48,2136.77"/>
    </edge>
    <edge id=":108352583_0" function="internal">
        <lane id=":108352583_0_0" index="0" disallow="tram rail_urban rail rail_electric rail_fast ship" speed="8.19" length="11.84" shape="4668.13,2178.97 4665.13,2178.23 4662.38,2178.49 4659.89,2179.76 4657.65,2182.04"/>
    </edge>
    <edge id=":108352583_1" function="internal">
        <lane id=":108352583_1_0" index="0" disallow="tram rail_urban rail rail_electric rail_fast ship" speed="8.33" length="16.16" shape="4668.13,2178.97 4664.49,2177.48 4660.66,2175.89 4656.79,2174.38 4653.07,2173.12"/>
    </edge>
    <edge id=":108352583_2" function="internal">
        <lane id=":108352583_2_0" index="0" disallow="tram rail_urban rail rail_electric rail_fast ship" speed="7.50" length="15.22" shape="4668.13,2178.97 4664.23,2176.77 4662.35,2174.08 4662.50,2170.90 4664.69,2167.23"/>
    </edge>
    <edge id=":108352583_3" function="internal">
        <lane id=":108352583_3_0" index="0" disallow="tram rail_urban rail rail_electric rail_fast ship" speed="3.65" length="4.67" shape="4668.13,2178.97 4667.31,2177.79 4667.24,2176.90 4667.90,2176.30 4669.31,2176.00"/>
    </edge>
    <edge id=":108352583_4" function="internal">
        <lane id=":108352583_4_0" index="0" disallow="tram rail_urban rail rail_electric rail_fast ship" speed="5.93" length="9.02" shape="4667.36,2169.02 4666.04,2171.21 4665.93,2173.10 4667.02,2174.70 4669.31,2176.00"/>
    </edge>
    <edge id=":108352583_5" function="internal">
        <lane id=":108352583_5_0" index="0" disallow="tram rail_urban rail rail_electric rail_fast ship" speed="8.33" length="16.24" shape="4667.36,2169.02 4657.65,2182.04"/>
    </edge>
    <edge id=":108352583_6" function="internal">
        <lane id=":108352583_6_0" index="0" disallow="tram rail_urban rail rail_electric rail_fast ship" speed="8.33" length="15.84" shape="4667.36,2169.02 4664.40,2171.80 4661.04,2173.41 4657.26,2173.85 4653.07,2173.12"/>
    </edge>
    <edge id=":108352583_7" function="internal">
        <lane id=":108352583_7_0" index="0" disallow="tram rail_urban rail rail_electric rail_fast ship" speed="3.66" length="4.69" shape="4667.36,2169.02 4666.02,2169.57 4665.13,2169.46 4664.68,2168.68 4664.69,2167.23"/>
    </edge>
    <edge id=":108352583_8" function="internal">
        <lane id=":108352583_8_0" index="0" disallow="tram rail_urban rail rail_electric rail_fast ship" speed="8.33" length="11.53" shape="4654.26,2170.14 4657.34,2170.68 4660.10,2170.38 4662.55,2169.23 4664.69,2167.23"/>
    </edge>
    <edge id=":108352583_9" function="internal">
        <lane id=":108352583_9_0" index="0" disallow="tram rail_urban rail rail_electric rail_fast ship" speed="8.33" length="16.16" shape="4654.26,2170.14 4657.98,2171.40 4661.84,2172.91 4665.68,2174.51 4669.31,2176.00"/>
    </edge>
    <edge id=":108352583_10" function="internal">
        <lane id=":108352583_10_0" index="0" disallow="tram rail_urban rail rail_electric rail_fast ship" speed="7.49" length="15.68" shape="4654.26,2170.14 4658.27,2172.02 4660.17,2174.63 4659.96,2177.97 4657.65,2182.04"/>
    </edge>
    <edge id=":108352583_11" function="internal">
        <lane id=":108352583_11_0" index="0" disallow="tram rail_urban rail rail_electric rail_fast ship" speed="3.66" length="4.69" shape="4654.26,2170.14 4655.09,2171.33 4655.16,2172.23 4654.49,2172.82 4653.07,2173.12"/>
    </edge>
    <edge id=":108352583_12" function="internal">
        <lane id=":108352583_12_0" index="0" disallow="tram rail_urban rail rail_electric rail_fast ship" speed="5.90" length="9.22" shape="4655.10,2180.11 4656.45,2177.72 4656.57,2175.76 4655.44,2174.23 4653.07,2173.12"/>
    </edge>
    <edge id=":108352583_13" function="internal">
        <lane id=":108352583_13_0" index="0" disallow="tram rail_urban rail rail_electric rail_fast ship" speed="8.33" length="16.06" shape="4655.10,2180.11 4664.69,2167.23"/>
    </edge>
    <edge id=":108352583_14" function="internal">
        <lane id=":108352583_14_0" index="0" disallow="tram rail_urban rail rail_electric rail_fast ship" speed="8.33" length="16.05" shape="4655.10,2180.11 4658.12,2177.04 4661.50,2175.33 4665.23,2174.98 4669.31,2176.00"/>
    </edge>
    <edge id=":108352583_15" function="internal">
        <lane id=":108352583_15_0" index="0" disallow="tram rail_urban rail rail_electric rail_fast ship" speed="3.65" length="4.67" shape="4655.10,2180.11 4656.46,2179.64 4657.34,2179.80 4657.74,2180.60 4657.65,2182.04"/>
    </edge>
    <edge id=":108352622_0" function="internal">
        <lane id=":108352622_0_0" index="0" disallow="tram rail_urban rail rail_electric rail_fast ship" speed="12.50" length="14.11" shape="4813.28,2214.01 4809.25,2227.53"/>
    </edge>
    <edge id=":108352622_1" function="internal">
        <lane id=":108352622_1_0" index="0" disallow="tram rail_urban rail rail_electric rail_fast ship" speed="8.00" length="3.85" shape="4813.28,2214.01 4811.62,2217.48"/>
    </edge>
    <edge id=":108352622_2" function="internal">
        <lane id=":108352622_2_0" index="0" disallow="tram rail_urban rail rail_electric rail_fast ship" speed="3.65" length="1.44" shape="4813.28,2214.01 4812.15,2214.91"/>
    </edge>
    <edge id=":108352622_9" function="internal">
        <lane id=":108352622_9_0" index="0" disallow="tram rail_urban rail rail_electric rail_fast ship" speed="8.00" length="10.24" shape="4811.62,2217.48 4809.24,2219.60 4806.14,2220.37 4802.33,2219.78"/>
    </edge>
    <edge id=":108352622_10" function="internal">
        <lane id=":108352622_10_0" index="0" disallow="tram rail_urban rail rail_electric rail_fast ship" speed="3.65" length="3.23" shape="4812.15,2214.91 4811.27,2215.05 4810.63,2214.43 4810.22,2213.04"/>
    </edge>
    <edge id=":108352622_3" function="internal">
        <lane id=":108352622_3_0" index="0" disallow="tram rail_urban rail rail_electric rail_fast ship" speed="6.51" length="8.96" shape="4803.26,2216.72 4805.69,2217.09 4807.66,2216.60 4809.17,2215.25 4810.22,2213.04"/>
    </edge>
    <edge id=":108352622_4" function="internal">
        <lane id=":108352622_4_0" index="0" disallow="tram rail_urban rail rail_electric rail_fast ship" speed="7.95" length="14.12" shape="4803.26,2216.72 4806.85,2218.37 4809.04,2220.72 4809.84,2223.77 4809.25,2227.53"/>
    </edge>
    <edge id=":108352622_5" function="internal">
        <lane id=":108352622_5_0" index="0" disallow="tram rail_urban rail rail_electric rail_fast ship" speed="3.65" length="4.67" shape="4803.26,2216.72 4804.17,2217.83 4804.32,2218.71 4803.71,2219.36 4802.33,2219.78"/>
    </edge>
    <edge id=":108352622_6" function="internal">
        <lane id=":108352622_6_0" index="0" disallow="tram rail_urban rail rail_electric rail_fast ship" speed="6.49" length="9.03" shape="4806.15,2226.70 4806.53,2224.29 4806.02,2222.34 4804.62,2220.83 4802.33,2219.78"/>
    </edge>
    <edge id=":108352622_7" function="internal">
        <lane id=":108352622_7_0" index="0" disallow="tram rail_urban rail rail_electric rail_fast ship" speed="12.50" length="14.25" shape="4806.15,2226.70 4810.22,2213.04"/>
    </edge>
    <edge id=":108352622_8" function="internal">
        <lane id=":108352622_8_0" index="0" disallow="tram rail_urban rail rail_electric rail_fast ship" speed="3.65" length="1.44" shape="4806.15,2226.70 4807.24,2225.74"/>
    </edge>
    <edge id=":108352622_11" function="internal">
        <lane id=":108352622_11_0" index="0" disallow="tram rail_urban rail rail_electric rail_fast ship" speed="3.65" length="3.23" shape="4807.24,2225.74 4808.12,2225.57 4808.79,2226.16 4809.25,2227.53"/>
    </edge>
    <edge id=":108352675_0" function="internal">
        <lane id=":108352675_0_0" index="0" disallow="tram rail_urban rail rail_electric rail_fast ship" speed="6.09" length="7.36" shape="5145.24,2098.10 5147.00,2099.04 5148.09,2100.32 5148.50,2101.95 5148.23,2103.93"/>
    </edge>
    <edge id=":108352675_1" function="internal">
        <lane id=":108352675_1_0" index="0" disallow="tram rail_urban rail rail_electric rail_fast ship" speed="3.65" length="4.67" shape="5145.24,2098.10 5146.09,2099.26 5146.20,2100.15 5145.55,2100.77 5144.15,2101.11"/>
    </edge>
    <edge id=":108352675_2" function="internal">
        <lane id=":108352675_2_0" index="0" disallow="tram rail_urban rail rail_electric rail_fast ship" speed="3.91" length="2.45" shape="5145.15,2103.05 5145.24,2102.40 5145.10,2101.85 5144.74,2101.42 5144.15,2101.11"/>
    </edge>
    <edge id=":108352675_3" function="internal">
        <lane id=":108352675_3_0" index="0" disallow="tram rail_urban rail rail_electric rail_fast ship" speed="3.65" length="4.67" shape="5145.15,2103.05 5146.24,2102.12 5147.12,2101.95 5147.78,2102.55 5148.23,2103.93"/>
    </edge>
    <edge id=":108352700_0" function="internal">