<?xml version="1.0" encoding="UTF-8"?>

<!-- generated on 2022-10-23 18:21:25 by Eclipse SUMO netedit Version v1_14_1+1008-de138fee043
<configuration xmlns:xsi="http://www.w3.org/2001/XMLSchema-instance" xsi:noNamespaceSchemaLocation="http://sumo.dlr.de/xsd/netconvertConfiguration.xsd">

    <input>
        <sumo-net-file value="src/case_study_real_world/config/realworld.net.xml"/>
    </input>

    <output>
        <output-file value="src/case_study_real_world/config/realworld.net.xml"/>
        <output.street-names value="true"/>
    </output>

    <processing>
        <geometry.min-radius.fix.railways value="false"/>
        <geometry.max-grade.fix value="false"/>
        <offset.disable-normalization value="true"/>
        <lefthand value="false"/>
    </processing>

    <junctions>
        <no-turnarounds value="true"/>
        <junctions.corner-detail value="5"/>
        <junctions.limit-turn-speed value="5.5"/>
        <rectangular-lane-cut value="false"/>
    </junctions>

    <pedestrian>
        <walkingareas value="false"/>
    </pedestrian>

</configuration>
-->

<net version="1.9" junctionCornerDetail="5" limitTurnSpeed="5.50" xmlns:xsi="http://www.w3.org/2001/XMLSchema-instance" xsi:noNamespaceSchemaLocation="http://sumo.dlr.de/xsd/net_file.xsd">

    <location netOffset="-625538.75,-4838127.29" convBoundary="2762.14,1580.62,4083.47,3665.77" origBoundary="-79.441718,43.685354,-79.350963,43.724141" projParameter="+proj=utm +zone=17 +ellps=WGS84 +datum=WGS84 +units=m +no_defs"/>

    <type id="highway.bridleway" priority="1" numLanes="1" speed="2.78" allow="pedestrian" oneway="1" width="2.00"/>
    <type id="highway.bus_guideway" priority="1" numLanes="1" speed="27.78" allow="bus" oneway="1"/>
    <type id="highway.cycleway" priority="1" numLanes="1" speed="5.56" allow="bicycle" oneway="0" width="1.00"/>
    <type id="highway.footway" priority="1" numLanes="1" speed="2.78" allow="pedestrian" oneway="1" width="2.00"/>
    <type id="highway.ford" priority="1" numLanes="1" speed="2.78" allow="army" oneway="0"/>
    <type id="highway.living_street" priority="2" numLanes="1" speed="2.78" disallow="tram rail_urban rail rail_electric rail_fast ship" oneway="0"/>
    <type id="highway.motorway" priority="14" numLanes="2" speed="39.44" allow="private emergency authority army vip passenger hov taxi bus coach delivery truck trailer motorcycle evehicle custom1 custom2" oneway="1"/>
    <type id="highway.motorway_link" priority="9" numLanes="1" speed="22.22" allow="private emergency authority army vip passenger hov taxi bus coach delivery truck trailer motorcycle evehicle custom1 custom2" oneway="1"/>
    <type id="highway.path" priority="1" numLanes="1" speed="5.56" allow="pedestrian bicycle" oneway="0" width="2.00"/>
    <type id="highway.pedestrian" priority="1" numLanes="1" speed="2.78" allow="pedestrian" oneway="1" width="2.00"/>
    <type id="highway.primary" priority="12" numLanes="2" speed="27.78" disallow="tram rail_urban rail rail_electric rail_fast ship" oneway="0"/>
    <type id="highway.primary_link" priority="7" numLanes="1" speed="22.22" disallow="tram rail_urban rail rail_electric rail_fast ship" oneway="0"/>
    <type id="highway.raceway" priority="15" numLanes="2" speed="83.33" allow="vip" oneway="0"/>
    <type id="highway.residential" priority="3" numLanes="1" speed="13.89" disallow="tram rail_urban rail rail_electric rail_fast ship" oneway="0"/>
    <type id="highway.secondary" priority="11" numLanes="1" speed="27.78" disallow="tram rail_urban rail rail_electric rail_fast ship" oneway="0"/>
    <type id="highway.secondary_link" priority="6" numLanes="1" speed="22.22" disallow="tram rail_urban rail rail_electric rail_fast ship" oneway="0"/>
    <type id="highway.service" priority="1" numLanes="1" speed="5.56" allow="pedestrian delivery bicycle" oneway="0"/>
    <type id="highway.stairs" priority="1" numLanes="1" speed="1.39" allow="pedestrian" oneway="1" width="2.00"/>
    <type id="highway.step" priority="1" numLanes="1" speed="1.39" allow="pedestrian" oneway="1" width="2.00"/>
    <type id="highway.steps" priority="1" numLanes="1" speed="1.39" allow="pedestrian" oneway="1" width="2.00"/>
    <type id="highway.tertiary" priority="10" numLanes="1" speed="22.22" disallow="tram rail_urban rail rail_electric rail_fast ship" oneway="0"/>
    <type id="highway.tertiary_link" priority="5" numLanes="1" speed="22.22" disallow="tram rail_urban rail rail_electric rail_fast ship" oneway="0"/>
    <type id="highway.track" priority="1" numLanes="1" speed="5.56" allow="pedestrian motorcycle moped bicycle" oneway="0"/>
    <type id="highway.trunk" priority="13" numLanes="2" speed="27.78" disallow="pedestrian bicycle tram rail_urban rail rail_electric rail_fast ship" oneway="0"/>
    <type id="highway.trunk_link" priority="8" numLanes="1" speed="22.22" disallow="pedestrian bicycle tram rail_urban rail rail_electric rail_fast ship" oneway="0"/>
    <type id="highway.unclassified" priority="4" numLanes="1" speed="13.89" disallow="tram rail_urban rail rail_electric rail_fast ship" oneway="0"/>
    <type id="highway.unsurfaced" priority="1" numLanes="1" speed="8.33" disallow="tram rail_urban rail rail_electric rail_fast ship" oneway="0"/>
    <type id="railway.highspeed" priority="21" numLanes="1" speed="69.44" allow="rail_fast" oneway="1"/>
    <type id="railway.light_rail" priority="19" numLanes="1" speed="27.78" allow="rail_urban" oneway="1"/>
    <type id="railway.preserved" priority="16" numLanes="1" speed="27.78" allow="rail" oneway="1"/>
    <type id="railway.rail" priority="20" numLanes="1" speed="44.44" allow="rail" oneway="1"/>
    <type id="railway.subway" priority="18" numLanes="1" speed="27.78" allow="rail_urban" oneway="1"/>
    <type id="railway.tram" priority="17" numLanes="1" speed="13.89" allow="tram" oneway="1"/>

    <edge id=":1072216565_0" function="internal">
        <lane id=":1072216565_0_0" index="0" disallow="tram rail_urban rail rail_electric rail_fast ship" speed="11.11" length="14.49" shape="3425.78,3550.94 3411.85,3546.92"/>
    </edge>
    <edge id=":1072216565_1" function="internal">
        <lane id=":1072216565_1_0" index="0" disallow="tram rail_urban rail rail_electric rail_fast ship" speed="8.06" length="4.12" shape="3425.78,3550.94 3422.23,3549.38 3422.06,3549.20"/>
    </edge>
    <edge id=":1072216565_2" function="internal">
        <lane id=":1072216565_2_0" index="0" disallow="tram rail_urban rail rail_electric rail_fast ship" speed="3.65" length="1.44" shape="3425.78,3550.94 3424.84,3549.85"/>
    </edge>
    <edge id=":1072216565_9" function="internal">
        <lane id=":1072216565_9_0" index="0" disallow="tram rail_urban rail rail_electric rail_fast ship" speed="8.06" length="10.17" shape="3422.06,3549.20 3420.01,3547.03 3419.14,3543.90 3419.61,3539.99"/>
    </edge>
    <edge id=":1072216565_10" function="internal">
        <lane id=":1072216565_10_0" index="0" disallow="tram rail_urban rail rail_electric rail_fast ship" speed="3.65" length="3.23" shape="3424.84,3549.85 3424.67,3548.97 3425.27,3548.31 3426.64,3547.86"/>
    </edge>
    <edge id=":1072216565_3" function="internal">
        <lane id=":1072216565_3_0" index="0" disallow="tram rail_urban rail rail_electric rail_fast ship" speed="6.59" length="9.20" shape="3422.72,3540.78 3422.41,3543.31 3422.96,3545.34 3424.37,3546.85 3426.64,3547.86"/>
    </edge>
    <edge id=":1072216565_4" function="internal">
        <lane id=":1072216565_4_0" index="0" disallow="tram rail_urban rail rail_electric rail_fast ship" speed="7.95" length="14.33" shape="3422.72,3540.78 3421.17,3544.42 3418.85,3546.66 3415.74,3547.50 3411.85,3546.92"/>
    </edge>
    <edge id=":1072216565_5" function="internal">
        <lane id=":1072216565_5_0" index="0" disallow="tram rail_urban rail rail_electric rail_fast ship" speed="3.65" length="4.67" shape="3422.72,3540.78 3421.65,3541.74 3420.77,3541.94 3420.09,3541.35 3419.61,3539.99"/>
    </edge>
    <edge id=":1072216565_6" function="internal">
        <lane id=":1072216565_6_0" index="0" disallow="tram rail_urban rail rail_electric rail_fast ship" speed="6.44" length="9.03" shape="3412.77,3543.86 3415.22,3544.22 3417.18,3543.70 3418.64,3542.29 3419.61,3539.99"/>
    </edge>
    <edge id=":1072216565_7" function="internal">
        <lane id=":1072216565_7_0" index="0" disallow="tram rail_urban rail rail_electric rail_fast ship" speed="11.11" length="14.43" shape="3412.77,3543.86 3426.64,3547.86"/>
    </edge>
    <edge id=":1072216565_8" function="internal">
        <lane id=":1072216565_8_0" index="0" disallow="tram rail_urban rail rail_electric rail_fast ship" speed="3.65" length="1.44" shape="3412.77,3543.86 3413.69,3544.97"/>
    </edge>
    <edge id=":1072216565_11" function="internal">
        <lane id=":1072216565_11_0" index="0" disallow="tram rail_urban rail rail_electric rail_fast ship" speed="3.65" length="3.23" shape="3413.69,3544.97 3413.84,3545.85 3413.23,3546.50 3411.85,3546.92"/>
    </edge>
    <edge id=":1072216569_0" function="internal">
        <lane id=":1072216569_0_0" index="0" disallow="tram rail_urban rail rail_electric rail_fast ship" speed="3.65" length="4.67" shape="3432.47,3491.82 3433.56,3490.86 3434.43,3490.68 3435.10,3491.28 3435.57,3492.64"/>
    </edge>
    <edge id=":128631220_0" function="internal">
        <lane id=":128631220_0_0" index="0" disallow="tram rail_urban rail rail_electric rail_fast ship" speed="6.07" length="8.05" shape="4080.66,2099.34 4082.69,2100.24 4083.90,2101.57 4084.30,2103.33 4083.88,2105.52"/>
    </edge>
    <edge id=":128631220_1" function="internal">
        <lane id=":128631220_1_0" index="0" disallow="tram rail_urban rail rail_electric rail_fast ship" speed="3.65" length="4.67" shape="4080.66,2099.34 4081.59,2100.43 4081.76,2101.31 4081.15,2101.97 4079.78,2102.42"/>
    </edge>
    <edge id=":128631220_2" function="internal">
        <lane id=":128631220_2_0" index="0" disallow="tram rail_urban rail rail_electric rail_fast ship" speed="3.90" length="2.68" shape="4080.86,2104.48 4081.00,2103.75 4080.86,2103.16 4080.46,2102.72 4079.78,2102.42"/>
    </edge>
    <edge id=":128631220_3" function="internal">
        <lane id=":128631220_3_0" index="0" disallow="tram rail_urban rail rail_electric rail_fast ship" speed="3.65" length="4.67" shape="4080.86,2104.48 4082.00,2103.60 4082.89,2103.48 4083.52,2104.12 4083.88,2105.52"/>
    </edge>
    <edge id=":128631222_0" function="internal">
        <lane id=":128631222_0_0" index="0" disallow="tram rail_urban rail rail_electric rail_fast ship" speed="8.33" length="14.08" shape="4053.42,2192.04 4052.12,2195.41 4050.84,2198.60 4049.65,2201.82 4048.61,2205.26"/>
    </edge>
    <edge id=":128631222_1" function="internal">
        <lane id=":128631222_1_0" index="0" disallow="tram rail_urban rail rail_electric rail_fast ship" speed="8.19" length="14.25" shape="4053.42,2192.04 4051.63,2195.28 4049.11,2197.22 4045.85,2197.86 4041.85,2197.20"/>
    </edge>
    <edge id=":128631222_2" function="internal">
        <lane id=":128631222_2_0" index="0" disallow="tram rail_urban rail rail_electric rail_fast ship" speed="3.65" length="4.68" shape="4053.42,2192.04 4052.21,2192.84 4051.32,2192.89 4050.74,2192.21 4050.47,2190.79"/>
    </edge>
    <edge id=":128631222_3" function="internal">
        <lane id=":128631222_3_0" index="0" disallow="tram rail_urban rail rail_electric rail_fast ship" speed="6.78" length="9.44" shape="4042.77,2194.13 4045.44,2194.58 4047.62,2194.17 4049.29,2192.91 4050.47,2190.79"/>
    </edge>
    <edge id=":128631222_4" function="internal">
        <lane id=":128631222_4_0" index="0" disallow="tram rail_urban rail rail_electric rail_fast ship" speed="8.12" length="14.22" shape="4042.77,2194.13 4046.17,2195.74 4048.28,2198.13 4049.09,2201.30 4048.61,2205.26"/>
    </edge>
    <edge id=":128631222_5" function="internal">
        <lane id=":128631222_5_0" index="0" disallow="tram rail_urban rail rail_electric rail_fast ship" speed="3.65" length="4.67" shape="4042.77,2194.13 4043.69,2195.24 4043.84,2196.12 4043.23,2196.78 4041.85,2197.20"/>
    </edge>
    <edge id=":128631222_6" function="internal">
        <lane id=":128631222_6_0" index="0" disallow="tram rail_urban rail rail_electric rail_fast ship" speed="6.58" length="8.99" shape="4045.58,2204.22 4045.88,2201.73 4045.36,2199.73 4044.01,2198.21 4041.85,2197.20"/>
    </edge>
    <edge id=":128631222_7" function="internal">
        <lane id=":128631222_7_0" index="0" disallow="tram rail_urban rail rail_electric rail_fast ship" speed="8.33" length="14.30" shape="4045.58,2204.22 4046.63,2200.74 4047.85,2197.46 4049.16,2194.19 4050.47,2190.79"/>
    </edge>
    <edge id=":128631222_8" function="internal">
        <lane id=":128631222_8_0" index="0" disallow="tram rail_urban rail rail_electric rail_fast ship" speed="3.65" length="4.69" shape="4045.58,2204.22 4046.73,2203.35 4047.62,2203.23 4048.24,2203.87 4048.61,2205.26"/>
    </edge>
    <edge id=":128631942_0" function="internal">
        <lane id=":128631942_0_0" index="0" disallow="tram rail_urban rail rail_electric rail_fast ship" speed="8.33" length="14.48" shape="3638.71,1969.34 3624.83,1965.21"/>
    </edge>
    <edge id=":128631942_1" function="internal">
        <lane id=":128631942_1_0" index="0" disallow="tram rail_urban rail rail_electric rail_fast ship" speed="7.67" length="14.62" shape="3638.71,1969.34 3634.81,1967.62 3632.60,1965.22 3632.06,1962.12 3633.21,1958.34"/>
    </edge>
    <edge id=":128631942_2" function="internal">
        <lane id=":128631942_2_0" index="0" disallow="tram rail_urban rail rail_electric rail_fast ship" speed="3.65" length="4.67" shape="3638.71,1969.34 3637.78,1968.23 3637.62,1967.35 3638.23,1966.70 3639.60,1966.26"/>
    </edge>
    <edge id=":128631942_3" function="internal">
        <lane id=":128631942_3_0" index="0" disallow="tram rail_urban rail rail_electric rail_fast ship" speed="6.18" length="9.07" shape="3636.25,1959.41 3635.53,1961.77 3635.84,1963.71 3637.20,1965.20 3639.60,1966.26"/>
    </edge>
    <edge id=":128631942_4" function="internal">
        <lane id=":128631942_4_0" index="0" disallow="tram rail_urban rail rail_electric rail_fast ship" speed="8.33" length="14.16" shape="3636.25,1959.41 3634.07,1962.81 3631.44,1964.91 3628.36,1965.71 3624.83,1965.21"/>
    </edge>
    <edge id=":128631942_5" function="internal">
        <lane id=":128631942_5_0" index="0" disallow="tram rail_urban rail rail_electric rail_fast ship" speed="3.66" length="4.70" shape="3636.25,1959.41 3635.09,1960.28 3634.20,1960.39 3633.57,1959.75 3633.21,1958.34"/>
    </edge>
    <edge id=":128631942_6" function="internal">
        <lane id=":128631942_6_0" index="0" disallow="tram rail_urban rail rail_electric rail_fast ship" speed="6.95" length="9.24" shape="3625.76,1962.15 3628.06,1962.47 3630.07,1961.95 3631.79,1960.57 3633.21,1958.34"/>
    </edge>
    <edge id=":128631942_7" function="internal">
        <lane id=":128631942_7_0" index="0" disallow="tram rail_urban rail rail_electric rail_fast ship" speed="8.33" length="14.43" shape="3625.76,1962.15 3639.60,1966.26"/>
    </edge>
    <edge id=":128631942_8" function="internal">
        <lane id=":128631942_8_0" index="0" disallow="tram rail_urban rail rail_electric rail_fast ship" speed="3.65" length="4.67" shape="3625.76,1962.15 3626.68,1963.27 3626.83,1964.15 3626.21,1964.80 3624.83,1965.21"/>
    </edge>
    <edge id=":128632425_0" function="internal">
        <lane id=":128632425_0_0" index="0" disallow="tram rail_urban rail rail_electric rail_fast ship" speed="8.33" length="13.30" shape="3713.20,1889.70 3709.09,1888.70 3705.58,1888.44 3702.68,1888.93 3700.38,1890.17"/>
    </edge>
    <edge id=":128632425_1" function="internal">
        <lane id=":128632425_1_0" index="0" disallow="tram rail_urban rail rail_electric rail_fast ship" speed="7.43" length="17.00" shape="3713.20,1889.70 3708.58,1887.55 3706.60,1884.81 3707.28,1881.49 3710.61,1877.58"/>
    </edge>
    <edge id=":128632425_2" function="internal">
        <lane id=":128632425_2_0" index="0" disallow="tram rail_urban rail rail_electric rail_fast ship" speed="3.65" length="4.68" shape="3713.20,1889.70 3712.25,1888.62 3712.07,1887.74 3712.66,1887.07 3714.03,1886.61"/>
    </edge>
    <edge id=":128632425_3" function="internal">
        <lane id=":128632425_3_0" index="0" disallow="tram rail_urban rail rail_electric rail_fast ship" speed="5.64" length="9.18" shape="3712.64,1880.06 3710.84,1882.17 3710.47,1883.97 3711.53,1885.45 3714.03,1886.61"/>
    </edge>
    <edge id=":128632425_4" function="internal">
        <lane id=":128632425_4_0" index="0" disallow="tram rail_urban rail rail_electric rail_fast ship" speed="8.33" length="15.88" shape="3712.64,1880.06 3700.38,1890.17"/>
    </edge>
    <edge id=":128632425_5" function="internal">
        <lane id=":128632425_5_0" index="0" disallow="tram rail_urban rail rail_electric rail_fast ship" speed="3.65" length="4.68" shape="3712.64,1880.06 3711.20,1880.20 3710.38,1879.83 3710.19,1878.96 3710.61,1877.58"/>
    </edge>
    <edge id=":128632425_6" function="internal">
        <lane id=":128632425_6_0" index="0" disallow="tram rail_urban rail rail_electric rail_fast ship" speed="8.33" length="15.87" shape="3698.37,1887.68 3710.61,1877.58"/>
    </edge>
    <edge id=":128632425_7" function="internal">
        <lane id=":128632425_7_0" index="0" disallow="tram rail_urban rail rail_electric rail_fast ship" speed="8.33" length="16.31" shape="3698.37,1887.68 3701.34,1886.00 3704.94,1885.26 3709.17,1885.46 3714.03,1886.61"/>
    </edge>
    <edge id=":128632425_8" function="internal">
        <lane id=":128632425_8_0" index="0" disallow="tram rail_urban rail rail_electric rail_fast ship" speed="3.65" length="4.67" shape="3698.37,1887.68 3699.81,1887.54 3700.62,1887.91 3700.81,1888.79 3700.38,1890.17"/>
    </edge>
    <edge id=":128632431_0" function="internal">
        <lane id=":128632431_0_0" index="0" disallow="tram rail_urban rail rail_electric rail_fast ship" speed="8.33" length="14.99" shape="3885.64,1787.77 3882.03,1787.45 3878.44,1788.29 3874.92,1789.85 3871.54,1791.65"/>
    </edge>
    <edge id=":128632431_1" function="internal">
        <lane id=":128632431_1_0" index="0" disallow="tram rail_urban rail rail_electric rail_fast ship" speed="8.33" length="16.95" shape="3885.64,1787.77 3869.43,1782.81"/>
    </edge>
    <edge id=":128632431_2" function="internal">
        <lane id=":128632431_2_0" index="0" disallow="tram rail_urban rail rail_electric rail_fast ship" speed="3.65" length="4.67" shape="3885.64,1787.77 3884.71,1786.67 3884.56,1785.79 3885.17,1785.13 3886.55,1784.71"/>
    </edge>
    <edge id=":128632431_3" function="internal">
        <lane id=":128632431_3_0" index="0" disallow="tram rail_urban rail rail_electric rail_fast ship" speed="8.33" length="16.91" shape="3870.38,1779.76 3886.55,1784.71"/>
    </edge>
    <edge id=":128632431_4" function="internal">
        <lane id=":128632431_4_0" index="0" disallow="tram rail_urban rail rail_electric rail_fast ship" speed="7.42" length="19.16" shape="3870.38,1779.76 3875.97,1782.22 3878.03,1785.02 3876.55,1788.16 3871.54,1791.65"/>
    </edge>
    <edge id=":128632431_5" function="internal">
        <lane id=":128632431_5_0" index="0" disallow="tram rail_urban rail rail_electric rail_fast ship" speed="3.65" length="4.67" shape="3870.38,1779.76 3871.29,1780.88 3871.43,1781.76 3870.82,1782.41 3869.43,1782.81"/>
    </edge>
    <edge id=":128632431_6" function="internal">
        <lane id=":128632431_6_0" index="0" disallow="tram rail_urban rail rail_electric rail_fast ship" speed="5.48" length="9.70" shape="3870.02,1788.84 3872.56,1787.07 3873.30,1785.48 3872.26,1784.06 3869.43,1782.81"/>
    </edge>
    <edge id=":128632431_7" function="internal">
        <lane id=":128632431_7_0" index="0" disallow="tram rail_urban rail rail_electric rail_fast ship" speed="8.33" length="17.36" shape="3870.02,1788.84 3873.78,1786.99 3878.13,1785.35 3882.56,1784.42 3886.55,1784.71"/>
    </edge>
    <edge id=":128632431_8" function="internal">
        <lane id=":128632431_8_0" index="0" disallow="tram rail_urban rail rail_electric rail_fast ship" speed="3.65" length="4.67" shape="3870.02,1788.84 3871.45,1788.97 3872.19,1789.49 3872.21,1790.38 3871.54,1791.65"/>
    </edge>
    <edge id=":128632514_0" function="internal">
        <lane id=":128632514_0_0" index="0" disallow="tram rail_urban rail rail_electric rail_fast ship" speed="6.27" length="9.04" shape="3635.88,1712.32 3633.38,1711.95 3631.46,1712.50 3630.10,1713.97 3629.31,1716.36"/>
    </edge>
    <edge id=":128632514_1" function="internal">
        <lane id=":128632514_1_0" index="0" disallow="tram rail_urban rail rail_electric rail_fast ship" speed="9.11" length="16.84" shape="3635.88,1712.32 3630.84,1710.30 3627.41,1707.76 3625.61,1704.69 3625.43,1701.11"/>
    </edge>
    <edge id=":128632514_2" function="internal">
        <lane id=":128632514_2_0" index="0" disallow="tram rail_urban rail rail_electric rail_fast ship" speed="3.65" length="1.44" shape="3635.88,1712.32 3634.96,1711.21"/>
    </edge>
    <edge id=":128632514_11" function="internal">
        <lane id=":128632514_11_0" index="0" disallow="tram rail_urban rail rail_electric rail_fast ship" speed="3.65" length="3.23" shape="3634.96,1711.21 3634.81,1710.33 3635.42,1709.68 3636.80,1709.26"/>
    </edge>
    <edge id=":128632514_3" function="internal">
        <lane id=":128632514_3_0" index="0" disallow="tram rail_urban rail rail_electric rail_fast ship" speed="7.04" length="9.68" shape="3631.75,1702.14 3631.74,1704.59 3632.57,1706.59 3634.26,1708.14 3636.80,1709.26"/>
    </edge>
    <edge id=":128632514_4" function="internal">
        <lane id=":128632514_4_0" index="0" disallow="tram rail_urban rail rail_electric rail_fast ship" speed="11.11" length="14.40" shape="3631.75,1702.14 3629.31,1716.36"/>
        <lane id=":128632514_4_1" index="1" disallow="tram rail_urban rail rail_electric rail_fast ship" speed="11.11" length="14.40" shape="3628.59,1701.62 3626.16,1715.80"/>
    </edge>
    <edge id=":128632514_6" function="internal">
        <lane id=":128632514_6_0" index="0" disallow="tram rail_urban rail rail_electric rail_fast ship" speed="3.65" length="1.44" shape="3628.59,1701.62 3627.61,1702.68"/>
    </edge>
    <edge id=":128632514_12" function="internal">
        <lane id=":128632514_12_0" index="0" disallow="tram rail_urban rail rail_electric rail_fast ship" speed="3.65" length="3.23" shape="3627.61,1702.68 3626.75,1702.95 3626.03,1702.42 3625.43,1701.11"/>
    </edge>
    <edge id=":128632514_7" function="internal">
        <lane id=":128632514_7_0" index="0" disallow="tram rail_urban rail rail_electric rail_fast ship" speed="11.11" length="14.76" shape="3616.71,1714.12 3617.95,1709.98 3619.53,1707.36 3621.09,1704.74 3622.27,1700.59"/>
        <lane id=":128632514_7_1" index="1" disallow="tram rail_urban rail rail_electric rail_fast ship" speed="11.11" length="14.76" shape="3619.86,1714.68 3621.10,1710.53 3622.68,1707.90 3624.24,1705.27 3625.43,1701.11"/>
    </edge>
    <edge id=":128632514_9" function="internal">
        <lane id=":128632514_9_0" index="0" disallow="tram rail_urban rail rail_electric rail_fast ship" speed="8.49" length="3.77" shape="3623.01,1715.24 3624.34,1711.71"/>
    </edge>
    <edge id=":128632514_10" function="internal">
        <lane id=":128632514_10_0" index="0" disallow="tram rail_urban rail rail_electric rail_fast ship" speed="3.65" length="1.44" shape="3623.01,1715.24 3624.01,1714.20"/>
    </edge>
    <edge id=":128632514_13" function="internal">
        <lane id=":128632514_13_0" index="0" disallow="tram rail_urban rail rail_electric rail_fast ship" speed="8.49" length="13.76" shape="3624.34,1711.71 3624.51,1711.26 3627.31,1708.93 3631.41,1708.27 3636.80,1709.26"/>
    </edge>
    <edge id=":128632514_14" function="internal">
        <lane id=":128632514_14_0" index="0" disallow="tram rail_urban rail rail_electric rail_fast ship" speed="3.65" length="3.23" shape="3624.01,1714.20 3624.86,1713.94 3625.58,1714.48 3626.16,1715.80"/>
    </edge>
    <edge id=":128633112_0" function="internal">
        <lane id=":128633112_0_0" index="0" disallow="tram rail_urban rail rail_electric rail_fast ship" speed="11.11" length="0.34" shape="3648.99,1600.61 3648.92,1600.98"/>
        <lane id=":128633112_0_1" index="1" disallow="tram rail_urban rail rail_electric rail_fast ship" speed="11.11" length="0.34" shape="3645.82,1600.12 3645.77,1600.43"/>
    </edge>
    <edge id=":128633112_2" function="internal">
        <lane id=":128633112_2_0" index="0" disallow="tram rail_urban rail rail_electric rail_fast ship" speed="3.65" length="2.34" shape="3645.82,1600.12 3644.85,1601.19 3644.00,1601.46"/>
    </edge>
    <edge id=":128633112_6" function="internal">
        <lane id=":128633112_6_0" index="0" disallow="tram rail_urban rail rail_electric rail_fast ship" speed="3.65" length="2.34" shape="3644.00,1601.46 3643.27,1600.94 3642.66,1599.64"/>
    </edge>
    <edge id=":128633112_3" function="internal">
        <lane id=":128633112_3_0" index="0" disallow="tram rail_urban rail rail_electric rail_fast ship" speed="11.11" length="0.22" shape="3639.47,1599.34 3639.50,1599.15"/>
        <lane id=":128633112_3_1" index="1" disallow="tram rail_urban rail rail_electric rail_fast ship" speed="11.11" length="0.22" shape="3642.62,1599.88 3642.66,1599.64"/>
    </edge>
    <edge id=":128633112_5" function="internal">
        <lane id=":128633112_5_0" index="0" disallow="tram rail_urban rail rail_electric rail_fast ship" speed="3.65" length="2.34" shape="3642.62,1599.88 3643.61,1598.84 3644.47,1598.58"/>
    </edge>
    <edge id=":128633112_7" function="internal">
        <lane id=":128633112_7_0" index="0" disallow="tram rail_urban rail rail_electric rail_fast ship" speed="3.65" length="2.34" shape="3644.47,1598.58 3645.19,1599.11 3645.77,1600.43"/>
    </edge>
    <edge id=":128634178_0" function="internal">
        <lane id=":128634178_0_0" index="0" disallow="tram rail_urban rail rail_electric rail_fast ship" speed="7.40" length="12.04" shape="3977.51,1819.42 3975.67,1817.70 3973.28,1817.21 3970.31,1817.93 3966.79,1819.89"/>
    </edge>
    <edge id=":128634178_1" function="internal">
        <lane id=":128634178_1_0" index="0" disallow="tram rail_urban rail rail_electric rail_fast ship" speed="8.33" length="16.15" shape="3977.51,1819.42 3974.91,1816.55 3971.54,1814.18 3967.78,1812.33 3964.04,1811.00"/>
    </edge>
    <edge id=":128634178_2" function="internal">
        <lane id=":128634178_2_0" index="0" disallow="tram rail_urban rail rail_electric rail_fast ship" speed="3.65" length="4.67" shape="3977.51,1819.42 3977.51,1817.98 3977.95,1817.21 3978.84,1817.09 3980.17,1817.65"/>
    </edge>
    <edge id=":128634178_3" function="internal">
        <lane id=":128634178_3_0" index="0" disallow="tram rail_urban rail rail_electric rail_fast ship" speed="8.33" length="18.30" shape="3964.95,1807.93 3968.96,1809.46 3973.32,1811.76 3977.30,1814.58 3980.17,1817.65"/>
    </edge>
    <edge id=":128634178_4" function="internal">
        <lane id=":128634178_4_0" index="0" disallow="tram rail_urban rail rail_electric rail_fast ship" speed="7.38" length="18.21" shape="3964.95,1807.93 3970.17,1810.19 3972.21,1812.93 3971.08,1816.17 3966.79,1819.89"/>
    </edge>
    <edge id=":128634178_5" function="internal">
        <lane id=":128634178_5_0" index="0" disallow="tram rail_urban rail rail_electric rail_fast ship" speed="3.65" length="4.67" shape="3964.95,1807.93 3965.88,1809.04 3966.03,1809.92 3965.42,1810.57 3964.04,1811.00"/>
    </edge>
    <edge id=":128634178_6" function="internal">
        <lane id=":128634178_6_0" index="0" disallow="tram rail_urban rail rail_electric rail_fast ship" speed="5.52" length="9.49" shape="3965.00,1817.23 3967.24,1815.29 3967.83,1813.61 3966.76,1812.18 3964.04,1811.00"/>
    </edge>
    <edge id=":128634178_7" function="internal">
        <lane id=":128634178_7_0" index="0" disallow="tram rail_urban rail rail_electric rail_fast ship" speed="8.33" length="17.18" shape="3965.00,1817.23 3969.80,1814.66 3973.93,1813.87 3977.39,1814.87 3980.17,1817.65"/>
    </edge>
    <edge id=":128634178_8" function="internal">
        <lane id=":128634178_8_0" index="0" disallow="tram rail_urban rail rail_electric rail_fast ship" speed="3.65" length="4.67" shape="3965.00,1817.23 3966.44,1817.23 3967.22,1817.67 3967.34,1818.55 3966.79,1819.89"/>
    </edge>
    <edge id=":128634433_0" function="internal">
        <lane id=":128634433_0_0" index="0" disallow="tram rail_urban rail rail_electric rail_fast ship" speed="6.13" length="6.52" shape="4047.43,1990.76 4048.32,1992.26 4048.61,1993.75 4048.30,1995.25 4047.40,1996.74"/>
    </edge>
    <edge id=":128634433_1" function="internal">
        <lane id=":128634433_1_0" index="0" disallow="tram rail_urban rail rail_electric rail_fast ship" speed="3.65" length="4.67" shape="4047.43,1990.76 4047.55,1992.20 4047.17,1993.01 4046.29,1993.19 4044.92,1992.74"/>
    </edge>
    <edge id=":128634433_2" function="internal">
        <lane id=":128634433_2_0" index="0" disallow="tram rail_urban rail rail_electric rail_fast ship" speed="3.93" length="2.17" shape="4044.91,1994.73 4045.21,1994.24 4045.31,1993.74 4045.21,1993.24 4044.92,1992.74"/>
    </edge>
    <edge id=":128634433_3" function="internal">
        <lane id=":128634433_3_0" index="0" disallow="tram rail_urban rail rail_electric rail_fast ship" speed="3.65" length="4.67" shape="4044.91,1994.73 4046.28,1994.30 4047.16,1994.49 4047.53,1995.30 4047.40,1996.74"/>
    </edge>
    <edge id=":128641127_0" function="internal">
        <lane id=":128641127_0_0" index="0" disallow="tram rail_urban rail rail_electric rail_fast ship" speed="6.24" length="9.05" shape="3619.65,1804.93 3617.15,1804.55 3615.24,1805.10 3613.90,1806.58 3613.14,1809.00"/>
    </edge>
    <edge id=":128641127_1" function="internal">