<?xml version="1.0" encoding="UTF-8"?>

<!-- generated on 2022-08-31 12:46:11 by Eclipse SUMO netedit Version 1.14.1
<configuration xmlns:xsi="http://www.w3.org/2001/XMLSchema-instance" xsi:noNamespaceSchemaLocation="http://sumo.dlr.de/xsd/netconvertConfiguration.xsd">

    <input>
        <sumo-net-file value="./config/network.net.xml"/>
    </input>

    <output>
        <output-file value="./config/network.net.xml"/>
    </output>

    <processing>
        <geometry.min-radius.fix.railways value="false"/>
        <geometry.max-grade.fix value="false"/>
        <offset.disable-normalization value="true"/>
        <lefthand value="false"/>
    </processing>

    <junctions>
        <no-turnarounds value="true"/>
        <junctions.corner-detail value="5"/>
        <junctions.limit-turn-speed value="5.5"/>
        <rectangular-lane-cut value="false"/>
    </junctions>

    <pedestrian>
        <walkingareas value="false"/>
    </pedestrian>

</configuration>
-->

<net version="1.9" junctionCornerDetail="5" limitTurnSpeed="5.50" xmlns:xsi="http://www.w3.org/2001/XMLSchema-instance" xsi:noNamespaceSchemaLocation="http://sumo.dlr.de/xsd/net_file.xsd">

    <location netOffset="0.00,0.00" convBoundary="-900.00,700.00,300.00,800.10" origBoundary="-10000000000.00,-10000000000.00,10000000000.00,10000000000.00" projParameter="!"/>

    <edge id=":J0_0" function="internal">
        <lane id=":J0_0_0" index="0" speed="13.89" length="11.19" shape="-796.01,804.80 -807.20,804.80"/>
        <lane id=":J0_0_1" index="1" speed="13.89" length="11.19" shape="-796.01,801.60 -807.20,801.60"/>
    </edge>
    <edge id=":J0_2" function="internal">
        <lane id=":J0_2_0" index="0" speed="8.10" length="2.36" shape="-796.01,801.60 -798.27,800.91"/>
    </edge>
    <edge id=":J0_6" function="internal">
        <lane id=":J0_6_0" index="0" speed="8.10" length="12.20" shape="-798.27,800.91 -798.45,800.85 -800.20,798.60 -801.25,794.85 -801.60,789.60"/>
    </edge>
    <edge id=":J0_3" function="internal">
        <lane id=":J0_3_0" index="0" speed="6.51" length="9.03" shape="-807.20,795.20 -804.75,794.85 -803.00,793.80 -801.95,792.05 -801.60,789.60"/>
    </edge>
    <edge id=":J0_4" function="internal">
        <lane id=":J0_4_0" index="0" speed="13.89" length="11.20" shape="-807.20,795.20 -796.00,795.20"/>
        <lane id=":J0_4_1" index="1" speed="13.89" length="11.20" shape="-807.20,798.40 -796.00,798.40"/>
    </edge>
    <edge id=":J1_0" function="internal">
        <lane id=":J1_0_0" index="0" speed="13.89" length="14.39" shape="-692.80,804.80 -707.19,804.80"/>
        <lane id=":J1_0_1" index="1" speed="13.89" length="14.39" shape="-692.80,801.60 -707.19,801.60"/>
    </edge>
    <edge id=":J1_2" function="internal">
        <lane id=":J1_2_0" index="0" speed="8.67" length="16.85" shape="-692.80,801.60 -696.65,800.85 -699.40,798.60 -701.04,794.85 -701.59,789.60"/>
    </edge>
    <edge id=":J1_3" function="internal">
        <lane id=":J1_3_0" index="0" speed="6.51" length="9.03" shape="-698.40,789.60 -698.05,792.05 -697.00,793.80 -695.25,794.85 -692.80,795.20"/>
    </edge>
    <edge id=":J1_4" function="internal">
        <lane id=":J1_4_0" index="0" speed="8.67" length="16.85" shape="-698.40,789.60 -698.95,794.85 -700.60,798.60 -703.35,800.85 -707.19,801.60"/>
    </edge>
    <edge id=":J1_5" function="internal">
        <lane id=":J1_5_0" index="0" speed="6.53" length="9.11" shape="-707.19,795.29 -704.74,794.94 -702.99,793.87 -701.94,792.09 -701.59,789.60"/>
    </edge>
    <edge id=":J1_6" function="internal">
        <lane id=":J1_6_0" index="0" speed="13.89" length="14.39" shape="-707.19,795.29 -692.80,795.20"/>
        <lane id=":J1_6_1" index="1" speed="13.89" length="14.39" shape="-707.19,798.49 -692.80,798.40"/>
    </edge>
    <edge id=":J2_0" function="internal">
        <lane id=":J2_0_0" index="0" speed="6.05" length="0.89" shape="-701.50,701.50 -701.26,700.64"/>
    </edge>
    <edge id=":J2_3" function="internal">
        <lane id=":J2_3_0" index="0" speed="6.05" length="6.78" shape="-701.26,700.64 -701.11,700.15 -699.95,699.18 -698.01,698.60 -695.30,698.40"/>
    </edge>
    <edge id=":J2_1" function="internal">
        <lane id=":J2_1_0" index="0" speed="13.89" length="9.30" shape="-704.60,698.40 -695.30,698.40"/>
    </edge>
    <edge id=":J2_2" function="internal">
        <lane id=":J2_2_0" index="0" speed="6.05" length="7.67" shape="-704.60,698.40 -701.89,698.59 -699.95,699.18 -698.79,700.15 -698.40,701.50"/>
    </edge>
    <edge id=":J3_0" function="internal">
        <lane id=":J3_0_0" index="0" speed="3.86" length="2.50" shape="-600.00,698.50 -599.30,698.59 -598.80,698.88 -598.50,699.34 -598.40,700.00"/>
    </edge>
    <edge id=":J4_0" function="internal">
        <lane id=":J4_0_0" index="0" speed="13.89" length="11.20" shape="-592.80,804.80 -604.00,804.80"/>
        <lane id=":J4_0_1" index="1" speed="13.89" length="11.20" shape="-592.80,801.60 -604.00,801.60"/>
    </edge>
    <edge id=":J4_2" function="internal">
        <lane id=":J4_2_0" index="0" speed="6.51" length="9.03" shape="-598.40,789.60 -598.05,792.05 -597.00,793.80 -595.25,794.85 -592.80,795.20"/>
    </edge>
    <edge id=":J4_3" function="internal">
        <lane id=":J4_3_0" index="0" speed="8.10" length="14.57" shape="-598.40,789.60 -598.75,794.85 -599.80,798.60 -601.55,800.85 -604.00,801.60"/>
    </edge>
    <edge id=":J4_4" function="internal">
        <lane id=":J4_4_0" index="0" speed="13.89" length="11.20" shape="-604.00,795.20 -592.80,795.20"/>
        <lane id=":J4_4_1" index="1" speed="13.89" length="11.20" shape="-604.00,798.40 -592.80,798.40"/>
    </edge>
    <edge id=":J7_0" function="internal">
        <lane id=":J7_0_0" index="0" speed="3.90" length="2.58" shape="-801.60,700.00 -801.50,699.30 -801.20,698.80 -800.70,698.50 -800.00,698.40"/>
    </edge>

    <edge id="Edge10" from="J5" to="J4" priority="-1" shape="-500.00,800.00 300.00,800.00 -400.00,800.00 -600.00,800.00">
        <lane id="Edge10_0" index="0" speed="13.89" length="92.80" shape="-500.00,804.80 -592.80,804.80"/>
        <lane id="Edge10_1" index="1" speed="13.89" length="92.80" shape="-500.00,801.60 -592.80,801.60"/>
    </edge>
    <edge id="Edge11" from="J4" to="J1" priority="-1">
        <lane id="Edge11_0" index="0" speed="13.89" length="88.80" shape="-604.00,804.80 -692.80,804.80"/>
        <lane id="Edge11_1" index="1" speed="13.89" length="88.80" shape="-604.00,801.60 -692.80,801.60"/>
    </edge>
    <edge id="Edge12" from="J1" to="J0" priority="-1">
        <lane id="Edge12_0" index="0" speed="13.89" length="88.82" shape="-707.19,804.80 -796.01,804.80"/>
        <lane id="Edge12_1" index="1" speed="13.89" length="88.82" shape="-707.19,801.60 -796.01,801.60"/>
    </edge>
    <edge id="Edge13" from="J0" to="J6" priority="-1">
        <lane id="Edge13_0" index="0" speed="13.89" length="92.80" shape="-807.20,804.80 -900.00,804.80"/>
        <lane id="Edge13_1" index="1" speed="13.89" length="92.80" shape="-807.20,801.60 -900.00,801.60"/>
    </edge>
    <edge id="Edge2" from="J1" to="J4" priority="-1">
        <lane id="Edge2_0" index="0" speed="13.89" length="88.80" shape="-692.80,795.20 -604.00,795.20"/>
        <lane id="Edge2_1" index="1" speed="13.89" length="88.80" shape="-692.80,798.40 -604.00,798.40"/>
    </edge>
    <edge id="Edge4" from="J0" to="J7" priority="-1">
        <lane id="Edge4_0" index="0" speed="13.89" length="89.60" shape="-801.60,789.60 -801.60,700.00"/>
    </edge>
    <edge id="Edge5" from="J7" to="J2" priority="-1">
        <lane id="Edge5_0" index="0" speed="13.89" length="95.40" shape="-800.00,698.40 -704.60,698.40"/>
    </edge>
    <edge id="Edge6" from="J1" to="J2" priority="-1" shape="-700.00,800.00 -699.90,700.10">
        <lane id="Edge6_0" index="0" speed="13.89" length="88.09" shape="-701.59,789.60 -701.50,701.50"/>
    </edge>
    <edge id="Edge7" from="J2" to="J1" priority="-1">
        <lane id="Edge7_0" index="0" speed="13.89" length="88.10" shape="-698.40,701.50 -698.40,789.60"/>
    </edge>
    <edge id="Edge8" from="J2" to="J3" priority="-1" shape="-700.00,700.00 -599.90,700.10">
        <lane id="Edge8_0" index="0" speed="13.89" length="95.30" shape="-695.30,698.40 -600.00,698.50"/>
    </edge>
    <edge id="Edge9" from="J3" to="J4" priority="-1">
        <lane id="Edge9_0" index="0" speed="13.89" length="89.60" shape="-598.40,700.00 -598.40,789.60"/>
    </edge>
    <edge id="destination" from="J4" to="J5" priority="-1" shape="-600.00,800.00 -400.00,800.00 300.00,800.00 -500.00,800.00">
        <lane id="destination_0" index="0" speed="13.89" length="92.80" shape="-592.80,795.20 -500.00,795.20"/>
        <lane id="destination_1" index="1" speed="13.89" length="92.80" shape="-592.80,798.40 -500.00,798.40"/>
    </edge>
    <edge id="edge1" from="J0" to="J1" priority="-1" shape="-800.00,800.00 -699.90,800.10">
        <lane id="edge1_0" index="0" speed="13.89" length="88.81" shape="-796.00,795.20 -707.19,795.29"/>
        <lane id="edge1_1" index="1" speed="13.89" length="88.81" shape="-796.00,798.40 -707.19,798.49"/>
    </edge>
    <edge id="origin" from="J6" to="J0" priority="-1">
        <lane id="origin_0" index="0" speed="13.89" length="92.80" shape="-900.00,795.20 -807.20,795.20"/>
        <lane id="origin_1" index="1" speed="13.89" length="92.80" shape="-900.00,798.40 -807.20,798.40"/>
    </edge>

    <junction id="J0" type="priority" x="-800.00" y="800.00" incLanes="Edge12_0 Edge12_1 origin_0 origin_1" intLanes=":J0_0_0 :J0_0_1 :J0_6_0 :J0_3_0 :J0_4_0 :J0_4_1" shape="-796.01,806.40 -796.00,793.60 -798.22,793.16 -799.00,792.60 -799.56,791.82 -799.89,790.82 -800.00,789.60 -803.20,789.60 -803.64,791.82 -804.20,792.60 -804.98,793.16 -805.98,793.49 -807.20,793.60 -807.20,806.40">
        <request index="0" response="000000" foes="000000" cont="0"/>
        <request index="1" response="000000" foes="000000" cont="0"/>
        <request index="2" response="111000" foes="111000" cont="1"/>
        <request index="3" response="000000" foes="000100" cont="0"/>
        <request index="4" response="000000" foes="000100" cont="0"/>
        <request index="5" response="000000" foes="000100" cont="0"/>
    </junction>
    <junction id="J1" type="traffic_light" x="-700.00" y="800.00" incLanes="Edge11_0 Edge11_1 Edge7_0 edge1_0 edge1_1" intLanes=":J1_0_0 :J1_0_1 :J1_2_0 :J1_3_0 :J1_4_0 :J1_5_0 :J1_6_0 :J1_6_1" shape="-692.80,806.40 -692.80,793.60 -695.02,793.16 -695.80,792.60 -696.36,791.82 -696.69,790.82 -696.80,789.60 -703.19,789.59 -703.64,791.87 -704.19,792.67 -704.97,793.24 -705.97,793.58 -707.19,793.69 -707.19,806.40" rightOfWay="edgePriority">
        <request index="0" response="00000000" foes="00010000" cont="0"/>
        <request index="1" response="00000000" foes="00010000" cont="0"/>
        <request index="2" response="11100000" foes="11110000" cont="0"/>
        <request index="3" response="11000000" foes="11000000" cont="0"/>
        <request index="4" response="11000111" foes="11000111" cont="0"/>
        <request index="5" response="00000000" foes="00000100" cont="0"/>
        <request index="6" response="00000000" foes="00011100" cont="0"/>
        <request index="7" response="00000000" foes="00011100" cont="0"/>
    </junction>
    <junction id="J2" type="priority" x="-700.00" y="700.00" incLanes="Edge6_0 Edge5_0" intLanes=":J2_3_0 :J2_1_0 :J2_2_0" shape="-703.10,701.50 -696.80,701.50 -696.63,700.67 -696.43,700.38 -696.13,700.17 -695.76,700.05 -695.30,700.00 -695.30,696.80 -704.60,696.80 -704.60,700.00 -703.77,700.17 -703.48,700.38 -703.27,700.67 -703.14,701.04">
        <request index="0" response="110" foes="110" cont="1"/>
        <request index="1" response="000" foes="001" cont="0"/>
        <request index="2" response="000" foes="001" cont="0"/>
    </junction>
    <junction id="J3" type="priority" x="-600.00" y="700.00" incLanes="Edge8_0" intLanes=":J3_0_0" shape="-600.00,700.10 -596.80,700.10 -597.16,698.32 -597.60,697.70 -598.22,697.26 -599.02,696.99 -600.00,696.90">
        <request index="0" response="0" foes="0" cont="0"/>
    </junction>
    <junction id="J4" type="priority" x="-600.00" y="800.00" incLanes="Edge10_0 Edge10_1 Edge9_0 Edge2_0 Edge2_1" intLanes=":J4_0_0 :J4_0_1 :J4_2_0 :J4_3_0 :J4_4_0 :J4_4_1" shape="-592.80,806.40 -592.80,793.60 -595.02,793.16 -595.80,792.60 -596.36,791.82 -596.69,790.82 -596.80,789.60 -600.00,789.60 -600.44,791.82 -601.00,792.60 -601.78,793.16 -602.78,793.49 -604.00,793.60 -604.00,806.40">
        <request index="0" response="000000" foes="001000" cont="0"/>
        <request index="1" response="000000" foes="001000" cont="0"/>
        <request index="2" response="110000" foes="110000" cont="0"/>
        <request index="3" response="110011" foes="110011" cont="0"/>
        <request index="4" response="000000" foes="001100" cont="0"/>
        <request index="5" response="000000" foes="001100" cont="0"/>
    </junction>
    <junction id="J5" type="dead_end" x="-500.00" y="800.00" incLanes="destination_0 destination_1" intLanes="" shape="-500.00,800.00 -500.00,793.60 -500.00,800.00"/>
    <junction id="J6" type="dead_end" x="-900.00" y="800.00" incLanes="Edge13_0 Edge13_1" intLanes="" shape="-900.00,800.00 -900.00,806.40 -900.00,800.00"/>
    <junction id="J7" type="priority" x="-800.00" y="700.00" incLanes="Edge4_0" intLanes=":J7_0_0" shape="-803.20,700.00 -800.00,700.00 -800.00,696.80 -801.78,697.16 -802.40,697.60 -802.84,698.22 -803.11,699.02">
        <request index="0" response="0" foes="0" cont="0"/>
    </junction>

    <junction id=":J0_6_0" type="internal" x="-798.27" y="800.91" incLanes=":J0_2_0 origin_0 origin_1" intLanes=":J0_3_0 :J0_4_0 :J0_4_1"/>
    <junction id=":J2_3_0" type="internal" x="-701.26" y="700.64" incLanes=":J2_0_0 Edge5_0" intLanes=":J2_1_0 :J2_2_0"/>

    <connection from="Edge10" to="Edge11" fromLane="0" toLane="0" via=":J4_0_0" dir="s" state="M"/>
    <connection from="Edge10" to="Edge11" fromLane="1" toLane="1" via=":J4_0_1" dir="s" state="M"/>
    <connection from="Edge11" to="Edge12" fromLane="0" toLane="0" via=":J1_0_0" dir="s" state="M"/>
    <connection from="Edge11" to="Edge12" fromLane="1" toLane="1" via=":J1_0_1" dir="s" state="M"/>
    <connection from="Edge11" to="Edge6" fromLane="1" toLane="0" via=":J1_2_0" dir="l" state="m"/>
    <connection from="Edge12" to="Edge13" fromLane="0" toLane="0" via=":J0_0_0" dir="s" state="M"/>
    <connection from="Edge12" to="Edge13" fromLane="1" toLane="1" via=":J0_0_1" dir="s" state="M"/>
    <connection from="Edge12" to="Edge4" fromLane="1" toLane="0" via=":J0_2_0" dir="l" state="m"/>
    <connection from="Edge2" to="destination" fromLane="0" toLane="0" via=":J4_4_0" dir="s" state="M"/>
    <connection from="Edge2" to="destination" fromLane="1" toLane="1" via=":J4_4_1" dir="s" state="M"/>
    <connection from="Edge4" to="Edge5" fromLane="0" toLane="0" via=":J7_0_0" dir="l" state="M"/>
    <connection from="Edge5" to="Edge8" fromLane="0" toLane="0" via=":J2_1_0" dir="s" state="M"/>
    <connection from="Edge5" to="Edge7" fromLane="0" toLane="0" via=":J2_2_0" dir="l" state="M"/>
    <connection from="Edge6" to="Edge8" fromLane="0" toLane="0" via=":J2_0_0" dir="l" state="m"/>
    <connection from="Edge7" to="Edge2" fromLane="0" toLane="0" via=":J1_3_0" dir="r" state="m"/>
    <connection from="Edge7" to="Edge12" fromLane="0" toLane="1" via=":J1_4_0" dir="l" state="m"/>
    <connection from="Edge8" to="Edge9" fromLane="0" toLane="0" via=":J3_0_0" dir="l" state="M"/>
    <connection from="Edge9" to="destination" fromLane="0" toLane="0" via=":J4_2_0" dir="r" state="m"/>
    <connection from="Edge9" to="Edge11" fromLane="0" toLane="1" via=":J4_3_0" dir="l" state="m"/>
    <connection from="edge1" to="Edge6" fromLane="0" toLane="0" via=":J1_5_0" dir="r" state="M"/>
    <connection from="edge1" to="Edge2" fromLane="0" toLane="0" via=":J1_6_0" dir="s" state="M"/>
    <connection from="edge1" to="Edge2" fromLane="1" toLane="1" via=":J1_6_1" dir="s" state="M"/>
    <connection from="origin" to="Edge4" fromLane="0" toLane="0" via=":J0_3_0" dir="r" state="M"/>
    <connection from="origin" to="edge1" fromLane="0" toLane="0" via=":J0_4_0" dir="s" state="M"/>
    <connection from="origin" to="edge1" fromLane="1" toLane="1" via=":J0_4_1" dir="s" state="M"/>

    <connection from=":J0_0" to="Edge13" fromLane="0" toLane="0" dir="s" state="M"/>
    <connection from=":J0_0" to="Edge13" fromLane="1" toLane="1" dir="s" state="M"/>
    <connection from=":J0_2" to="Edge4" fromLane="0" toLane="0" via=":J0_6_0" dir="l" state="m"/>
    <connection from=":J0_6" to="Edge4" fromLane="0" toLane="0" dir="l" state="M"/>
    <connection from=":J0_3" to="Edge4" fromLane="0" toLane="0" dir="r" state="M"/>
    <connection from=":J0_4" to="edge1" fromLane="0" toLane="0" dir="s" state="M"/>
    <connection from=":J0_4" to="edge1" fromLane="1" toLane="1" dir="s" state="M"/>
    <connection from=":J1_0" to="Edge12" fromLane="0" toLane="0" dir="s" state="M"/>
    <connection from=":J1_0" to="Edge12" fromLane="1" toLane="1" dir="s" state="M"/>
    <connection from=":J1_2" to="Edge6" fromLane="0" toLane="0" dir="l" state="M"/>
    <connection from=":J1_3" to="Edge2" fromLane="0" toLane="0" dir="r" state="M"/>
    <connection from=":J1_4" to="Edge12" fromLane="0" toLane="1" dir="l" state="M"/>
    <connection from=":J1_5" to="Edge6" fromLane="0" toLane="0" dir="r" state="M"/>
    <connection from=":J1_6" to="Edge2" fromLane="0" toLane="0" dir="s" state="M"/>
    <connection from=":J1_6" to="Edge2" fromLane="1" toLane="1" dir="s" state="M"/>
    <connection from=":J2_0" to="Edge8" fromLane="0" toLane="0" via=":J2_3_0" dir="l" state="m"/>
    <connection from=":J2_3" to="Edge8" fromLane="0" toLane="0" dir="l" state="M"/>
    <connection from=":J2_1" to="Edge8" fromLane="0" toLane="0" dir="s" state="M"/>
    <connection from=":J2_2" to="Edge7" fromLane="0" toLane="0" dir="l" state="M"/>
    <connection from=":J3_0" to="Edge9" fromLane="0" toLane="0" dir="l" state="M"/>
    <connection from=":J4_0" to="Edge11" fromLane="0" toLane="0" dir="s" state="M"/>
    <connection from=":J4_0" to="Edge11" fromLane="1" toLane="1" dir="s" state="M"/>
    <connection from=":J4_2" to="destination" fromLane="0" toLane="0" dir="r" state="M"/>
    <connection from=":J4_3" to="Edge11" fromLane="0" toLane="1" dir="l" state="M"/>
    <connection from=":J4_4" to="destination" fromLane="0" toLane="0" dir="s" state="M"/>
    <connection from=":J4_4" to="destination" fromLane="1" toLane="1" dir="s" state="M"/>
    <connection from=":J7_0" to="Edge5" fromLane="0" toLane="0" dir="l" state="M"/>

</net>
