<?xml version="1.0" encoding="UTF-8"?>

<!-- generated on 2022-10-15 17:13:42.108931 by randomTrips.py v1_14_1+1008-de138fee043
<configuration>
    <allow-fringe value="True"/>
    <fringe-factor value="10000.0"/>
    <insertion-rate value="100.0"/>
    <min-distance value="1500.0"/>
    <net-file value="config/data/grid.net.xml"/>
    <trip-attributes value="departPos=&quot;random&quot; departSpeed=&quot;max&quot; type=&quot;civilianVehicles&quot; departLane=&quot;best&quot;"/>
    <output-trip-file value="config/data/trips.trips.xml"/>
</configuration>
-->

<routes xmlns:xsi="http://www.w3.org/2001/XMLSchema-instance" xsi:noNamespaceSchemaLocation="http://sumo.dlr.de/xsd/routes_file.xsd">
    <trip id="0" depart="0.00" from="right2D2" to="A0bottom0" departPos="random" departSpeed="max" type="civilianVehicles" departLane="best"/>
    <trip id="1" depart="36.00" from="top2C3" to="A0left0" departPos="random" departSpeed="max" type="civilianVehicles" departLane="best"/>
    <trip id="2" depart="72.00" from="top0A3" to="D0right0" departPos="random" departSpeed="max" type="civilianVehicles" departLane="best"/>
    <trip id="3" depart="108.00" from="top0A3" to="D0right0" departPos="random" departSpeed="max" type="civilianVehicles" departLane="best"/>
    <trip id="4" depart="144.00" from="right3D3" to="A0bottom0" departPos="random" departSpeed="max" type="civilianVehicles" departLane="best"/>
    <trip id="5" depart="180.00" from="bottom3D0" to="A3left3" departPos="random" departSpeed="max" type="civilianVehicles" departLane="best"/>
    <trip id="6" depart="216.00" from="left0A0" to="D3right3" departPos="random" departSpeed="max" type="civilianVehicles" departLane="best"/>
    <trip id="7" depart="252.00" from="right0D0" to="A3left3" departPos="random" departSpeed="max" type="civilianVehicles" departLane="best"/>
    <trip id="8" depart="288.00" from="top0A3" to="C0bottom2" departPos="random" departSpeed="max" type="civilianVehicles" departLane="best"/>
    <trip id="9" depart="324.00" from="top0A3" to="C0bottom2" departPos="random" departSpeed="max" type="civilianVehicles" departLane="best"/>
    <trip id="10" depart="360.00" from="bottom0A0" to="D3right3" departPos="random" departSpeed="max" type="civilianVehicles" departLane="best"/>
    <trip id="11" depart="396.00" from="left3A3" to="C0bottom2" departPos="random" departSpeed="max" type="civilianVehicles" departLane="best"/>
    <trip id="12" depart="432.00" from="left0A0" to="D2right2" departPos="random" departSpeed="max" type="civilianVehicles" departLane="best"/>
    <trip id="13" depart="468.00" from="bottom3D0" to="A3left3" departPos="random" departSpeed="max" type="civilianVehicles" departLane="best"/>
    <trip id="14" depart="504.00" from="left3A3" to="C0bottom2" departPos="random" departSpeed="max" type="civilianVehicles" departLane="best"/>
    <trip id="15" depart="540.00" from="bottom3D0" to="A2left2" departPos="random" departSpeed="max" type="civilianVehicles" departLane="best"/>
    <trip id="16" depart="576.00" from="left3A3" to="D1right1" departPos="random" departSpeed="max" type="civilianVehicles" departLane="best"/>
    <trip id="17" depart="612.00" from="top3D3" to="A0left0" departPos="random" departSpeed="max" type="civilianVehicles" departLane="best"/>
    <trip id="18" depart="648.00" from="bottom3D0" to="B3top1" departPos="random" departSpeed="max" type="civilianVehicles" departLane="best"/>
    <trip id="19" depart="684.00" from="bottom2C0" to="A3left3" departPos="random" departSpeed="max" type="civilianVehicles" departLane="best"/>
    <trip id="20" depart="720.00" from="bottom0A0" to="C3top2" departPos="random" departSpeed="max" type="civilianVehicles" departLane="best"/>
    <trip id="21" depart="756.00" from="left0A0" to="D3right3" departPos="random" departSpeed="max" type="civilianVehicles" departLane="best"/>
    <trip id="22" depart="792.00" from="top1B3" to="D0right0" departPos="random" departSpeed="max" type="civilianVehicles" departLane="best"/>
    <trip id="23" depart="828.00" from="right2D2" to="A0bottom0" departPos="random" departSpeed="max" type="civilianVehicles" departLane="best"/>
    <trip id="24" depart="864.00" from="left0A0" to="C3top2" departPos="random" departSpeed="max" type="civilianVehicles" departLane="best"/>
    <trip id="25" depart="900.00" from="bottom1B0" to="D3right3" departPos="random" departSpeed="max" type="civilianVehicles" departLane="best"/>
    <trip id="26" depart="936.00" from="left0A0" to="D3right3" departPos="random" departSpeed="max" type="civilianVehicles" departLane="best"/>
    <trip id="27" depart="972.00" from="left1A1" to="D3right3" departPos="random" departSpeed="max" type="civilianVehicles" departLane="best"/>
    <trip id="28" depart="1008.00" from="top3D3" to="A0left0" departPos="random" departSpeed="max" type="civilianVehicles" departLane="best"/>
    <trip id="29" depart="1044.00" from="top3D3" to="A1left1" departPos="random" departSpeed="max" type="civilianVehicles" departLane="best"/>
    <trip id="30" depart="1080.00" from="bottom0A0" to="D3right3" departPos="random" departSpeed="max" type="civilianVehicles" departLane="best"/>
    <trip id="31" depart="1116.00" from="bottom3D0" to="B3top1" departPos="random" departSpeed="max" type="civilianVehicles" departLane="best"/>
    <trip id="32" depart="1152.00" from="left2A2" to="D0bottom3" departPos="random" departSpeed="max" type="civilianVehicles" departLane="best"/>
    <trip id="33" depart="1188.00" from="right2D2" to="A0bottom0" departPos="random" departSpeed="max" type="civilianVehicles" departLane="best"/>
    <trip id="34" depart="1224.00" from="top0A3" to="D1right1" departPos="random" departSpeed="max" type="civilianVehicles" departLane="best"/>
    <trip id="35" depart="1260.00" from="left3A3" to="D1right1" departPos="random" departSpeed="max" type="civilianVehicles" departLane="best"/>
    <trip id="36" depart="1296.00" from="top0A3" to="C0bottom2" departPos="random" departSpeed="max" type="civilianVehicles" departLane="best"/>
    <trip id="37" depart="1332.00" from="right3D3" to="A0left0" departPos="random" departSpeed="max" type="civilianVehicles" departLane="best"/>
    <trip id="38" depart="1368.00" from="left2A2" to="D0right0" departPos="random" departSpeed="max" type="civilianVehicles" departLane="best"/>
    <trip id="39" depart="1404.00" from="bottom3D0" to="A2left2" departPos="random" departSpeed="max" type="civilianVehicles" departLane="best"/>
    <trip id="40" depart="1440.00" from="bottom3D0" to="A3top0" departPos="random" departSpeed="max" type="civilianVehicles" departLane="best"/>
    <trip id="41" depart="1476.00" from="right3D3" to="A0left0" departPos="random" departSpeed="max" type="civilianVehicles" departLane="best"/>
    <trip id="42" depart="1512.00" from="top3D3" to="B0bottom1" departPos="random" departSpeed="max" type="civilianVehicles" departLane="best"/>
    <trip id="43" depart="1548.00" from="right3D3" to="A0left0" departPos="random" departSpeed="max" type="civilianVehicles" departLane="best"/>
    <trip id="44" depart="1584.00" from="bottom1B0" to="D3top3" departPos="random" departSpeed="max" type="civilianVehicles" departLane="best"/>
    <trip id="45" depart="1620.00" from="right0D0" to="A3top0" departPos="random" departSpeed="max" type="civilianVehicles" departLane="best"/>
    <trip id="46" depart="1656.00" from="bottom1B0" to="D3top3" departPos="random" departSpeed="max" type="civilianVehicles" departLane="best"/>
    <trip id="47" depart="1692.00" from="right3D3" to="B0bottom1" departPos="random" departSpeed="max" type="civilianVehicles" departLane="best"/>
    <trip id="48" depart="1728.00" from="right0D0" to="B3top1" departPos="random" departSpeed="max" type="civilianVehicles" departLane="best"/>
    <trip id="49" depart="1764.00" from="left2A2" to="D0right0" departPos="random" departSpeed="max" type="civilianVehicles" departLane="best"/>
    <trip id="50" depart="1800.00" from="left0A0" to="D2right2" departPos="random" departSpeed="max" type="civilianVehicles" departLane="best"/>
    <trip id="51" depart="1836.00" from="left1A1" to="D3right3" departPos="random" departSpeed="max" type="civilianVehicles" departLane="best"/>
    <trip id="52" depart="1872.00" from="bottom0A0" to="D3top3" departPos="random" departSpeed="max" type="civilianVehicles" departLane="best"/>
    <trip id="53" depart="1908.00" from="left3A3" to="D1right1" departPos="random" departSpeed="max" type="civilianVehicles" departLane="best"/>
    <trip id="54" depart="1944.00" from="left3A3" to="D1right1" departPos="random" departSpeed="max" type="civilianVehicles" departLane="best"/>
    <trip id="55" depart="1980.00" from="left3A3" to="D0right0" departPos="random" departSpeed="max" type="civilianVehicles" departLane="best"/>
    <trip id="56" depart="2016.00" from="bottom3D0" to="A2left2" departPos="random" departSpeed="max" type="civilianVehicles" departLane="best"/>
    <trip id="57" depart="2052.00" from="right0D0" to="A3left3" departPos="random" departSpeed="max" type="civilianVehicles" departLane="best"/>
    <trip id="58" depart="2088.00" from="right3D3" to="A1left1" departPos="random" departSpeed="max" type="civilianVehicles" departLane="best"/>
    <trip id="59" depart="2124.00" from="right1D1" to="A3left3" departPos="random" departSpeed="max" type="civilianVehicles" departLane="best"/>
    <trip id="60" depart="2160.00" from="top3D3" to="A0left0" departPos="random" departSpeed="max" type="civilianVehicles" departLane="best"/>
    <trip id="61" depart="2196.00" from="right0D0" to="B3top1" departPos="random" departSpeed="max" type="civilianVehicles" departLane="best"/>
    <trip id="62" depart="2232.00" from="bottom3D0" to="A2left2" departPos="random" departSpeed="max" type="civilianVehicles" departLane="best"/>
    <trip id="63" depart="2268.00" from="right1D1" to="A3left3" departPos="random" departSpeed="max" type="civilianVehicles" departLane="best"/>
    <trip id="64" depart="2304.00" from="top0A3" to="D0bottom3" departPos="random" departSpeed="max" type="civilianVehicles" departLane="best"/>
    <trip id="65" depart="2340.00" from="bottom2C0" to="A3left3" departPos="random" departSpeed="max" type="civilianVehicles" departLane="best"/>
    <trip id="66" depart="2376.00" from="bottom1B0" to="D3top3" departPos="random" departSpeed="max" type="civilianVehicles" departLane="best"/>
    <trip id="67" depart="2412.00" from="left3A3" to="D0bottom3" departPos="random" departSpeed="max" type="civilianVehicles" departLane="best"/>
    <trip id="68" depart="2448.00" from="left0A0" to="D3top3" departPos="random" departSpeed="max" type="civilianVehicles" departLane="best"/>
    <trip id="69" depart="2484.00" from="left1A1" to="D3top3" departPos="random" departSpeed="max" type="civilianVehicles" departLane="best"/>
    <trip id="70" depart="2520.00" from="bottom2C0" to="A3top0" departPos="random" departSpeed="max" type="civilianVehicles" departLane="best"/>
    <trip id="71" depart="2556.00" from="top0A3" to="D0bottom3" departPos="random" departSpeed="max" type="civilianVehicles" departLane="best"/>
    <trip id="72" depart="2592.00" from="left3A3" to="D0right0" departPos="random" departSpeed="max" type="civilianVehicles" departLane="best"/>
    <trip id="73" depart="2628.00" from="bottom1B0" to="D3top3" departPos="random" departSpeed="max" type="civilianVehicles" departLane="best"/>
    <trip id="74" depart="2664.00" from="left0A0" to="D2right2" departPos="random" departSpeed="max" type="civilianVehicles" departLane="best"/>
    <trip id="75" depart="2700.00" from="right0D0" to="A3top0" departPos="random" departSpeed="max" type="civilianVehicles" departLane="best"/>
    <trip id="76" depart="2736.00" from="right0D0" to="B3top1" departPos="random" departSpeed="max" type="civilianVehicles" departLane="best"/>
    <trip id="77" depart="2772.00" from="right3D3" to="B0bottom1" departPos="random" departSpeed="max" type="civilianVehicles" departLane="best"/>
    <trip id="78" depart="2808.00" from="right3D3" to="B0bottom1" departPos="random" departSpeed="max" type="civilianVehicles" departLane="best"/>
    <trip id="79" depart="2844.00" from="left0A0" to="C3top2" departPos="random" departSpeed="max" type="civilianVehicles" departLane="best"/>
    <trip id="80" depart="2880.00" from="bottom0A0" to="C3top2" departPos="random" departSpeed="max" type="civilianVehicles" departLane="best"/>
    <trip id="81" depart="2916.00" from="right1D1" to="A3top0" departPos="random" departSpeed="max" type="civilianVehicles" departLane="best"/>
    <trip id="82" depart="2952.00" from="right3D3" to="A0left0" departPos="random" departSpeed="max" type="civilianVehicles" departLane="best"/>
    <trip id="83" depart="2988.00" from="top0A3" to="D0right0" departPos="random" departSpeed="max" type="civilianVehicles" departLane="best"/>
    <trip id="84" depart="3024.00" from="top3D3" to="A1left1" departPos="random" departSpeed="max" type="civilianVehicles" departLane="best"/>
    <trip id="85" depart="3060.00" from="left3A3" to="D0bottom3" departPos="random" departSpeed="max" type="civilianVehicles" departLane="best"/>
    <trip id="86" depart="3096.00" from="bottom0A0" to="D3right3" departPos="random" departSpeed="max" type="civilianVehicles" departLane="best"/>
    <trip id="87" depart="3132.00" from="bottom1B0" to="D3right3" departPos="random" departSpeed="max" type="civilianVehicles" departLane="best"/>
    <trip id="88" depart="3168.00" from="top3D3" to="B0bottom1" departPos="random" departSpeed="max" type="civilianVehicles" departLane="best"/>
    <trip id="89" depart="3204.00" from="right3D3" to="A1left1" departPos="random" departSpeed="max" type="civilianVehicles" departLane="best"/>
    <trip id="90" depart="3240.00" from="top3D3" to="A0bottom0" departPos="random" departSpeed="max" type="civilianVehicles" departLane="best"/>
    <trip id="91" depart="3276.00" from="bottom3D0" to="A2left2" departPos="random" departSpeed="max" type="civilianVehicles" departLane="best"/>
    <trip id="92" depart="3312.00" from="bottom0A0" to="D2right2" departPos="random" departSpeed="max" type="civilianVehicles" departLane="best"/>
    <trip id="93" depart="3348.00" from="right2D2" to="A0bottom0" departPos="random" departSpeed="max" type="civilianVehicles" departLane="best"/>
    <trip id="94" depart="3384.00" from="bottom3D0" to="A3top0" departPos="random" departSpeed="max" type="civilianVehicles" departLane="best"/>
    <trip id="95" depart="3420.00" from="top0A3" to="C0bottom2" departPos="random" departSpeed="max" type="civilianVehicles" departLane="best"/>
    <trip id="96" depart="3456.00" from="top3D3" to="A0bottom0" departPos="random" departSpeed="max" type="civilianVehicles" departLane="best"/>
    <trip id="97" depart="3492.00" from="right0D0" to="B3top1" departPos="random" departSpeed="max" type="civilianVehicles" departLane="best"/>
    <trip id="98" depart="3528.00" from="top3D3" to="A0bottom0" departPos="random" departSpeed="max" type="civilianVehicles" departLane="best"/>
    <trip id="99" depart="3564.00" from="top2C3" to="A0left0" departPos="random" departSpeed="max" type="civilianVehicles" departLane="best"/>
</routes>
