<?xml version="1.0" encoding="UTF-8"?>

<!-- generated on 2022-10-18 16:47:44.646558 by randomTrips.py v1_14_1+1008-de138fee043
<configuration>
    <allow-fringe value="True"/>
    <fringe-factor value="10000.0"/>
    <insertion-rate value="500.0"/>
    <min-distance value="1500.0"/>
    <net-file value="src/case_study_grid/config/grid.net.xml"/>
    <random value="True"/>
    <trip-attributes value="departPos=&quot;random&quot; departSpeed=&quot;max&quot; type=&quot;civilianVehicles&quot; departLane=&quot;best&quot;"/>
    <output-trip-file value="src/case_study_grid/config/trips.trips.xml"/>
</configuration>
-->

<routes xmlns:xsi="http://www.w3.org/2001/XMLSchema-instance" xsi:noNamespaceSchemaLocation="http://sumo.dlr.de/xsd/routes_file.xsd">
    <trip id="0" depart="0.00" from="right0C0" to="A0left0" departPos="random" departSpeed="max" type="civilianVehicles" departLane="best"/>
    <trip id="1" depart="7.20" from="bottom2C0" to="B2top1" departPos="random" departSpeed="max" type="civilianVehicles" departLane="best"/>
    <trip id="2" depart="14.40" from="top2C2" to="C0bottom2" departPos="random" departSpeed="max" type="civilianVehicles" departLane="best"/>
    <trip id="3" depart="21.60" from="right0C0" to="A2top0" departPos="random" departSpeed="max" type="civilianVehicles" departLane="best"/>
    <trip id="4" depart="28.80" from="bottom0A0" to="C2top2" departPos="random" departSpeed="max" type="civilianVehicles" departLane="best"/>
    <trip id="5" depart="36.00" from="bottom1B0" to="B2top1" departPos="random" departSpeed="max" type="civilianVehicles" departLane="best"/>
    <trip id="6" depart="43.20" from="left0A0" to="C2right2" departPos="random" departSpeed="max" type="civilianVehicles" departLane="best"/>
    <trip id="7" depart="50.40" from="right0C0" to="A0left0" departPos="random" departSpeed="max" type="civilianVehicles" departLane="best"/>
    <trip id="8" depart="57.60" from="top2C2" to="A0bottom0" departPos="random" departSpeed="max" type="civilianVehicles" departLane="best"/>
    <trip id="9" depart="64.80" from="right2C2" to="A1left1" departPos="random" departSpeed="max" type="civilianVehicles" departLane="best"/>
    <trip id="10" depart="72.00" from="left2A2" to="C2right2" departPos="random" departSpeed="max" type="civilianVehicles" departLane="best"/>
    <trip id="11" depart="79.20" from="top0A2" to="C0right0" departPos="random" departSpeed="max" type="civilianVehicles" departLane="best"/>
    <trip id="12" depart="86.40" from="right1C1" to="A1left1" departPos="random" departSpeed="max" type="civilianVehicles" departLane="best"/>
    <trip id="13" depart="93.60" from="bottom2C0" to="B2top1" departPos="random" departSpeed="max" type="civilianVehicles" departLane="best"/>
    <trip id="14" depart="100.80" from="bottom1B0" to="B2top1" departPos="random" departSpeed="max" type="civilianVehicles" departLane="best"/>
    <trip id="15" depart="108.00" from="right2C2" to="A0left0" departPos="random" departSpeed="max" type="civilianVehicles" departLane="best"/>
    <trip id="16" depart="115.20" from="left0A0" to="C1right1" departPos="random" departSpeed="max" type="civilianVehicles" departLane="best"/>
    <trip id="17" depart="122.40" from="left2A2" to="C0bottom2" departPos="random" departSpeed="max" type="civilianVehicles" departLane="best"/>
    <trip id="18" depart="129.60" from="right0C0" to="A0left0" departPos="random" departSpeed="max" type="civilianVehicles" departLane="best"/>
    <trip id="19" depart="136.80" from="bottom1B0" to="B2top1" departPos="random" departSpeed="max" type="civilianVehicles" departLane="best"/>
    <trip id="20" depart="144.00" from="top2C2" to="B0bottom1" departPos="random" departSpeed="max" type="civilianVehicles" departLane="best"/>
    <trip id="21" depart="151.20" from="bottom2C0" to="B2top1" departPos="random" departSpeed="max" type="civilianVehicles" departLane="best"/>
    <trip id="22" depart="158.40" from="right2C2" to="A2left2" departPos="random" departSpeed="max" type="civilianVehicles" departLane="best"/>
    <trip id="23" depart="165.60" from="right0C0" to="A2left2" departPos="random" departSpeed="max" type="civilianVehicles" departLane="best"/>
    <trip id="24" depart="172.80" from="right2C2" to="A2left2" departPos="random" departSpeed="max" type="civilianVehicles" departLane="best"/>
    <trip id="25" depart="180.00" from="right0C0" to="A0left0" departPos="random" departSpeed="max" type="civilianVehicles" departLane="best"/>
    <trip id="26" depart="187.20" from="top0A2" to="C0bottom2" departPos="random" departSpeed="max" type="civilianVehicles" departLane="best"/>
    <trip id="27" depart="194.40" from="right2C2" to="A0bottom0" departPos="random" departSpeed="max" type="civilianVehicles" departLane="best"/>
    <trip id="28" depart="201.60" from="bottom2C0" to="B2top1" departPos="random" departSpeed="max" type="civilianVehicles" departLane="best"/>
    <trip id="29" depart="208.80" from="top0A2" to="C0bottom2" departPos="random" departSpeed="max" type="civilianVehicles" departLane="best"/>
    <trip id="30" depart="216.00" from="right0C0" to="A1left1" departPos="random" departSpeed="max" type="civilianVehicles" departLane="best"/>
    <trip id="31" depart="223.20" from="bottom0A0" to="C2top2" departPos="random" departSpeed="max" type="civilianVehicles" departLane="best"/>
    <trip id="32" depart="230.40" from="bottom0A0" to="C2top2" departPos="random" departSpeed="max" type="civilianVehicles" departLane="best"/>
    <trip id="33" depart="237.60" from="top0A2" to="C0bottom2" departPos="random" departSpeed="max" type="civilianVehicles" departLane="best"/>
    <trip id="34" depart="244.80" from="left2A2" to="C2right2" departPos="random" departSpeed="max" type="civilianVehicles" departLane="best"/>
    <trip id="35" depart="252.00" from="right1C1" to="A1left1" departPos="random" departSpeed="max" type="civilianVehicles" departLane="best"/>
    <trip id="36" depart="259.20" from="top0A2" to="A0bottom0" departPos="random" departSpeed="max" type="civilianVehicles" departLane="best"/>
    <trip id="37" depart="266.40" from="bottom0A0" to="B2top1" departPos="random" departSpeed="max" type="civilianVehicles" departLane="best"/>
    <trip id="38" depart="273.60" from="bottom1B0" to="B2top1" departPos="random" departSpeed="max" type="civilianVehicles" departLane="best"/>
    <trip id="39" depart="280.80" from="right2C2" to="A1left1" departPos="random" departSpeed="max" type="civilianVehicles" departLane="best"/>
    <trip id="40" depart="288.00" from="bottom2C0" to="A2left2" departPos="random" departSpeed="max" type="civilianVehicles" departLane="best"/>
    <trip id="41" depart="295.20" from="right2C2" to="A2left2" departPos="random" departSpeed="max" type="civilianVehicles" departLane="best"/>
    <trip id="42" depart="302.40" from="left1A1" to="C1right1" departPos="random" departSpeed="max" type="civilianVehicles" departLane="best"/>
    <trip id="43" depart="309.60" from="right0C0" to="A1left1" departPos="random" departSpeed="max" type="civilianVehicles" departLane="best"/>
    <trip id="44" depart="316.80" from="bottom2C0" to="A2left2" departPos="random" departSpeed="max" type="civilianVehicles" departLane="best"/>
    <trip id="45" depart="324.00" from="right2C2" to="A0left0" departPos="random" departSpeed="max" type="civilianVehicles" departLane="best"/>
    <trip id="46" depart="331.20" from="top0A2" to="C0bottom2" departPos="random" departSpeed="max" type="civilianVehicles" departLane="best"/>
    <trip id="47" depart="338.40" from="right2C2" to="A0bottom0" departPos="random" departSpeed="max" type="civilianVehicles" departLane="best"/>
    <trip id="48" depart="345.60" from="bottom2C0" to="A2left2" departPos="random" departSpeed="max" type="civilianVehicles" departLane="best"/>
    <trip id="49" depart="352.80" from="bottom2C0" to="C2top2" departPos="random" departSpeed="max" type="civilianVehicles" departLane="best"/>
    <trip id="50" depart="360.00" from="right1C1" to="A0left0" departPos="random" departSpeed="max" type="civilianVehicles" departLane="best"/>
    <trip id="51" depart="367.20" from="left2A2" to="C0right0" departPos="random" departSpeed="max" type="civilianVehicles" departLane="best"/>
    <trip id="52" depart="374.40" from="top1B2" to="A0bottom0" departPos="random" departSpeed="max" type="civilianVehicles" departLane="best"/>
    <trip id="53" depart="381.60" from="left0A0" to="C0right0" departPos="random" departSpeed="max" type="civilianVehicles" departLane="best"/>
    <trip id="54" depart="388.80" from="right0C0" to="A2left2" departPos="random" departSpeed="max" type="civilianVehicles" departLane="best"/>
    <trip id="55" depart="396.00" from="top0A2" to="B0bottom1" departPos="random" departSpeed="max" type="civilianVehicles" departLane="best"/>
    <trip id="56" depart="403.20" from="top1B2" to="B0bottom1" departPos="random" departSpeed="max" type="civilianVehicles" departLane="best"/>
    <trip id="57" depart="410.40" from="bottom0A0" to="A2top0" departPos="random" departSpeed="max" type="civilianVehicles" departLane="best"/>
    <trip id="58" depart="417.60" from="left1A1" to="C1right1" departPos="random" departSpeed="max" type="civilianVehicles" departLane="best"/>
    <trip id="59" depart="424.80" from="right0C0" to="A2top0" departPos="random" departSpeed="max" type="civilianVehicles" departLane="best"/>
    <trip id="60" depart="432.00" from="bottom1B0" to="A2top0" departPos="random" departSpeed="max" type="civilianVehicles" departLane="best"/>
    <trip id="61" depart="439.20" from="right0C0" to="A1left1" departPos="random" departSpeed="max" type="civilianVehicles" departLane="best"/>
    <trip id="62" depart="446.40" from="right0C0" to="A2top0" departPos="random" departSpeed="max" type="civilianVehicles" departLane="best"/>
    <trip id="63" depart="453.60" from="right0C0" to="A2left2" departPos="random" departSpeed="max" type="civilianVehicles" departLane="best"/>
    <trip id="64" depart="460.80" from="bottom1B0" to="C2top2" departPos="random" departSpeed="max" type="civilianVehicles" departLane="best"/>
    <trip id="65" depart="468.00" from="right2C2" to="A0left0" departPos="random" departSpeed="max" type="civilianVehicles" departLane="best"/>
    <trip id="66" depart="475.20" from="right0C0" to="A0left0" departPos="random" departSpeed="max" type="civilianVehicles" departLane="best"/>
    <trip id="67" depart="482.40" from="left2A2" to="C2right2" departPos="random" departSpeed="max" type="civilianVehicles" departLane="best"/>
    <trip id="68" depart="489.60" from="right0C0" to="A2top0" departPos="random" departSpeed="max" type="civilianVehicles" departLane="best"/>
    <trip id="69" depart="496.80" from="bottom2C0" to="A2top0" departPos="random" departSpeed="max" type="civilianVehicles" departLane="best"/>
    <trip id="70" depart="504.00" from="top2C2" to="B0bottom1" departPos="random" departSpeed="max" type="civilianVehicles" departLane="best"/>
    <trip id="71" depart="511.20" from="right1C1" to="A2left2" departPos="random" departSpeed="max" type="civilianVehicles" departLane="best"/>
    <trip id="72" depart="518.40" from="top0A2" to="A0bottom0" departPos="random" departSpeed="max" type="civilianVehicles" departLane="best"/>
    <trip id="73" depart="525.60" from="bottom1B0" to="B2top1" departPos="random" departSpeed="max" type="civilianVehicles" departLane="best"/>
    <trip id="74" depart="532.80" from="bottom1B0" to="B2top1" departPos="random" departSpeed="max" type="civilianVehicles" departLane="best"/>
    <trip id="75" depart="540.00" from="top1B2" to="A0bottom0" departPos="random" departSpeed="max" type="civilianVehicles" departLane="best"/>
    <trip id="76" depart="547.20" from="right0C0" to="A2left2" departPos="random" departSpeed="max" type="civilianVehicles" departLane="best"/>
    <trip id="77" depart="554.40" from="right0C0" to="A1left1" departPos="random" departSpeed="max" type="civilianVehicles" departLane="best"/>
    <trip id="78" depart="561.60" from="left1A1" to="C0right0" departPos="random" departSpeed="max" type="civilianVehicles" departLane="best"/>
    <trip id="79" depart="568.80" from="top0A2" to="B0bottom1" departPos="random" departSpeed="max" type="civilianVehicles" departLane="best"/>
    <trip id="80" depart="576.00" from="bottom0A0" to="C2top2" departPos="random" departSpeed="max" type="civilianVehicles" departLane="best"/>
    <trip id="81" depart="583.20" from="bottom2C0" to="C2top2" departPos="random" departSpeed="max" type="civilianVehicles" departLane="best"/>
    <trip id="82" depart="590.40" from="left2A2" to="C0bottom2" departPos="random" departSpeed="max" type="civilianVehicles" departLane="best"/>
    <trip id="83" depart="597.60" from="left1A1" to="C1right1" departPos="random" departSpeed="max" type="civilianVehicles" departLane="best"/>
    <trip id="84" depart="604.80" from="left2A2" to="C0right0" departPos="random" departSpeed="max" type="civilianVehicles" departLane="best"/>
    <trip id="85" depart="612.00" from="bottom1B0" to="B2top1" departPos="random" departSpeed="max" type="civilianVehicles" departLane="best"/>
    <trip id="86" depart="619.20" from="left1A1" to="C2right2" departPos="random" departSpeed="max" type="civilianVehicles" departLane="best"/>
    <trip id="87" depart="626.40" from="left2A2" to="C0right0" departPos="random" departSpeed="max" type="civilianVehicles" departLane="best"/>
    <trip id="88" depart="633.60" from="bottom0A0" to="B2top1" departPos="random" departSpeed="max" type="civilianVehicles" departLane="best"/>
    <trip id="89" depart="640.80" from="bottom1B0" to="A2top0" departPos="random" departSpeed="max" type="civilianVehicles" departLane="best"/>
    <trip id="90" depart="648.00" from="right1C1" to="A2left2" departPos="random" departSpeed="max" type="civilianVehicles" departLane="best"/>
    <trip id="91" depart="655.20" from="left0A0" to="C0right0" departPos="random" departSpeed="max" type="civilianVehicles" departLane="best"/>
    <trip id="92" depart="662.40" from="top2C2" to="C0bottom2" departPos="random" departSpeed="max" type="civilianVehicles" departLane="best"/>
    <trip id="93" depart="669.60" from="left1A1" to="C2right2" departPos="random" departSpeed="max" type="civilianVehicles" departLane="best"/>
    <trip id="94" depart="676.80" from="right2C2" to="A1left1" departPos="random" departSpeed="max" type="civilianVehicles" departLane="best"/>
    <trip id="95" depart="684.00" from="right1C1" to="A2left2" departPos="random" departSpeed="max" type="civilianVehicles" departLane="best"/>
    <trip id="96" depart="691.20" from="right1C1" to="A0left0" departPos="random" departSpeed="max" type="civilianVehicles" departLane="best"/>
    <trip id="97" depart="698.40" from="right1C1" to="A2left2" departPos="random" departSpeed="max" type="civilianVehicles" departLane="best"/>
    <trip id="98" depart="705.60" from="bottom2C0" to="A2left2" departPos="random" departSpeed="max" type="civilianVehicles" departLane="best"/>
    <trip id="99" depart="712.80" from="bottom1B0" to="C2top2" departPos="random" departSpeed="max" type="civilianVehicles" departLane="best"/>
    <trip id="100" depart="720.00" from="bottom1B0" to="C2top2" departPos="random" departSpeed="max" type="civilianVehicles" departLane="best"/>
    <trip id="101" depart="727.20" from="right1C1" to="A2left2" departPos="random" departSpeed="max" type="civilianVehicles" departLane="best"/>
    <trip id="102" depart="734.40" from="bottom2C0" to="A2left2" departPos="random" departSpeed="max" type="civilianVehicles" departLane="best"/>
    <trip id="103" depart="741.60" from="left0A0" to="C2right2" departPos="random" departSpeed="max" type="civilianVehicles" departLane="best"/>
    <trip id="104" depart="748.80" from="bottom2C0" to="A2left2" departPos="random" departSpeed="max" type="civilianVehicles" departLane="best"/>
    <trip id="105" depart="756.00" from="bottom0A0" to="C2top2" departPos="random" departSpeed="max" type="civilianVehicles" departLane="best"/>
    <trip id="106" depart="763.20" from="top1B2" to="A0bottom0" departPos="random" departSpeed="max" type="civilianVehicles" departLane="best"/>
    <trip id="107" depart="770.40" from="bottom2C0" to="A2left2" departPos="random" departSpeed="max" type="civilianVehicles" departLane="best"/>
    <trip id="108" depart="777.60" from="top2C2" to="B0bottom1" departPos="random" departSpeed="max" type="civilianVehicles" departLane="best"/>
    <trip id="109" depart="784.80" from="right0C0" to="A2top0" departPos="random" departSpeed="max" type="civilianVehicles" departLane="best"/>
    <trip id="110" depart="792.00" from="top1B2" to="C0bottom2" departPos="random" departSpeed="max" type="civilianVehicles" departLane="best"/>
    <trip id="111" depart="799.20" from="left1A1" to="C2right2" departPos="random" departSpeed="max" type="civilianVehicles" departLane="best"/>
    <trip id="112" depart="806.40" from="left1A1" to="C1right1" departPos="random" departSpeed="max" type="civilianVehicles" departLane="best"/>
    <trip id="113" depart="813.60" from="right1C1" to="A2left2" departPos="random" departSpeed="max" type="civilianVehicles" departLane="best"/>
    <trip id="114" depart="820.80" from="right2C2" to="A0bottom0" departPos="random" departSpeed="max" type="civilianVehicles" departLane="best"/>
    <trip id="115" depart="828.00" from="bottom2C0" to="C2top2" departPos="random" departSpeed="max" type="civilianVehicles" departLane="best"/>
    <trip id="116" depart="835.20" from="right1C1" to="A2left2" departPos="random" departSpeed="max" type="civilianVehicles" departLane="best"/>
    <trip id="117" depart="842.40" from="top0A2" to="A0bottom0" departPos="random" departSpeed="max" type="civilianVehicles" departLane="best"/>
    <trip id="118" depart="849.60" from="right0C0" to="A2left2" departPos="random" departSpeed="max" type="civilianVehicles" departLane="best"/>
    <trip id="119" depart="856.80" from="left0A0" to="C2right2" departPos="random" departSpeed="max" type="civilianVehicles" departLane="best"/>
    <trip id="120" depart="864.00" from="top0A2" to="A0bottom0" departPos="random" departSpeed="max" type="civilianVehicles" departLane="best"/>
    <trip id="121" depart="871.20" from="top2C2" to="A0bottom0" departPos="random" departSpeed="max" type="civilianVehicles" departLane="best"/>
    <trip id="122" depart="878.40" from="right1C1" to="A2left2" departPos="random" departSpeed="max" type="civilianVehicles" departLane="best"/>
    <trip id="123" depart="885.60" from="top1B2" to="C0bottom2" departPos="random" departSpeed="max" type="civilianVehicles" departLane="best"/>
    <trip id="124" depart="892.80" from="right2C2" to="A0left0" departPos="random" departSpeed="max" type="civilianVehicles" departLane="best"/>
    <trip id="125" depart="900.00" from="bottom0A0" to="C2right2" departPos="random" departSpeed="max" type="civilianVehicles" departLane="best"/>
    <trip id="126" depart="907.20" from="left2A2" to="C1right1" departPos="random" departSpeed="max" type="civilianVehicles" departLane="best"/>
    <trip id="127" depart="914.40" from="left0A0" to="C2top2" departPos="random" departSpeed="max" type="civilianVehicles" departLane="best"/>
    <trip id="128" depart="921.60" from="top0A2" to="C0right0" departPos="random" departSpeed="max" type="civilianVehicles" departLane="best"/>
    <trip id="129" depart="928.80" from="right2C2" to="A1left1" departPos="random" departSpeed="max" type="civilianVehicles" departLane="best"/>
    <trip id="130" depart="936.00" from="bottom0A0" to="A2top0" departPos="random" departSpeed="max" type="civilianVehicles" departLane="best"/>
    <trip id="131" depart="943.20" from="top0A2" to="A0bottom0" departPos="random" departSpeed="max" type="civilianVehicles" departLane="best"/>
    <trip id="132" depart="950.40" from="right2C2" to="A1left1" departPos="random" departSpeed="max" type="civilianVehicles" departLane="best"/>
    <trip id="133" depart="957.60" from="top2C2" to="A0bottom0" departPos="random" departSpeed="max" type="civilianVehicles" departLane="best"/>
    <trip id="134" depart="964.80" from="left1A1" to="C0right0" departPos="random" departSpeed="max" type="civilianVehicles" departLane="best"/>
    <trip id="135" depart="972.00" from="right1C1" to="A0left0" departPos="random" departSpeed="max" type="civilianVehicles" departLane="best"/>
    <trip id="136" depart="979.20" from="right2C2" to="A2left2" departPos="random" departSpeed="max" type="civilianVehicles" departLane="best"/>
    <trip id="137" depart="986.40" from="top2C2" to="B0bottom1" departPos="random" departSpeed="max" type="civilianVehicles" departLane="best"/>
    <trip id="138" depart="993.60" from="bottom2C0" to="B2top1" departPos="random" departSpeed="max" type="civilianVehicles" departLane="best"/>
    <trip id="139" depart="1000.80" from="right2C2" to="A1left1" departPos="random" departSpeed="max" type="civilianVehicles" departLane="best"/>
    <trip id="140" depart="1008.00" from="left2A2" to="C2right2" departPos="random" departSpeed="max" type="civilianVehicles" departLane="best"/>
    <trip id="141" depart="1015.20" from="left0A0" to="C0right0" departPos="random" departSpeed="max" type="civilianVehicles" departLane="best"/>
    <trip id="142" depart="1022.40" from="top2C2" to="A0left0" departPos="random" departSpeed="max" type="civilianVehicles" departLane="best"/>
    <trip id="143" depart="1029.60" from="bottom1B0" to="A2top0" departPos="random" departSpeed="max" type="civilianVehicles" departLane="best"/>
    <trip id="144" depart="1036.80" from="right0C0" to="A2left2" departPos="random" departSpeed="max" type="civilianVehicles" departLane="best"/>
    <trip id="145" depart="1044.00" from="bottom1B0" to="C2top2" departPos="random" departSpeed="max" type="civilianVehicles" departLane="best"/>
    <trip id="146" depart="1051.20" from="left2A2" to="C0right0" departPos="random" departSpeed="max" type="civilianVehicles" departLane="best"/>
    <trip id="147" depart="1058.40" from="right1C1" to="A2left2" departPos="random" departSpeed="max" type="civilianVehicles" departLane="best"/>
    <trip id="148" depart="1065.60" from="right0C0" to="A0left0" departPos="random" departSpeed="max" type="civilianVehicles" departLane="best"/>
    <trip id="149" depart="1072.80" from="bottom1B0" to="A2top0" departPos="random" departSpeed="max" type="civilianVehicles" departLane="best"/>
    <trip id="150" depart="1080.00" from="bottom0A0" to="C2top2" departPos="random" departSpeed="max" type="civilianVehicles" departLane="best"/>
    <trip id="151" depart="1087.20" from="right2C2" to="A1left1" departPos="random" departSpeed="max" type="civilianVehicles" departLane="best"/>
    <trip id="152" depart="1094.40" from="bottom2C0" to="A2left2" departPos="random" departSpeed="max" type="civilianVehicles" departLane="best"/>
    <trip id="153" depart="1101.60" from="bottom2C0" to="A2top0" departPos="random" departSpeed="max" type="civilianVehicles" departLane="best"/>
    <trip id="154" depart="1108.80" from="left0A0" to="C0right0" departPos="random" departSpeed="max" type="civilianVehicles" departLane="best"/>
    <trip id="155" depart="1116.00" from="right2C2" to="A1left1" departPos="random" departSpeed="max" type="civilianVehicles" departLane="best"/>
    <trip id="156" depart="1123.20" from="top1B2" to="A0bottom0" departPos="random" departSpeed="max" type="civilianVehicles" departLane="best"/>
    <trip id="157" depart="1130.40" from="bottom1B0" to="C2top2" departPos="random" departSpeed="max" type="civilianVehicles" departLane="best"/>
    <trip id="158" depart="1137.60" from="top2C2" to="C0bottom2" departPos="random" departSpeed="max" type="civilianVehicles" departLane="best"/>
    <trip id="159" depart="1144.80" from="right1C1" to="A0left0" departPos="random" departSpeed="max" type="civilianVehicles" departLane="best"/>
    <trip id="160" depart="1152.00" from="left0A0" to="C1right1" departPos="random" departSpeed="max" type="civilianVehicles" departLane="best"/>
    <trip id="161" depart="1159.20" from="top1B2" to="B0bottom1" departPos="random" departSpeed="max" type="civilianVehicles" departLane="best"/>
    <trip id="162" depart="1166.40" from="right0C0" to="A2top0" departPos="random" departSpeed="max" type="civilianVehicles" departLane="best"/>
    <trip id="163" depart="1173.60" from="right2C2" to="A0bottom0" departPos="random" departSpeed="max" type="civilianVehicles" departLane="best"/>
    <trip id="164" depart="1180.80" from="left1A1" to="C1right1" departPos="random" departSpeed="max" type="civilianVehicles" departLane="best"/>
    <trip id="165" depart="1188.00" from="top1B2" to="B0bottom1" departPos="random" departSpeed="max" type="civilianVehicles" departLane="best"/>
    <trip id="166" depart="1195.20" from="bottom0A0" to="B2top1" departPos="random" departSpeed="max" type="civilianVehicles" departLane="best"/>
    <trip id="167" depart="1202.40" from="left1A1" to="C2right2" departPos="random" departSpeed="max" type="civilianVehicles" departLane="best"/>
    <trip id="168" depart="1209.60" from="left2A2" to="C1right1" departPos="random" departSpeed="max" type="civilianVehicles" departLane="best"/>
    <trip id="169" depart="1216.80" from="bottom0A0" to="A2top0" departPos="random" departSpeed="max" type="civilianVehicles" departLane="best"/>
    <trip id="170" depart="1224.00" from="bottom2C0" to="A2left2" departPos="random" departSpeed="max" type="civilianVehicles" departLane="best"/>
    <trip id="171" depart="1231.20" from="bottom0A0" to="C2right2" departPos="random" departSpeed="max" type="civilianVehicles" departLane="best"/>
    <trip id="172" depart="1238.40" from="left2A2" to="C2right2" departPos="random" departSpeed="max" type="civilianVehicles" departLane="best"/>
    <trip id="173" depart="1245.60" from="bottom1B0" to="C2top2" departPos="random" departSpeed="max" type="civilianVehicles" departLane="best"/>
    <trip id="174" depart="1252.80" from="left2A2" to="C0right0" departPos="random" departSpeed="max" type="civilianVehicles" departLane="best"/>
    <trip id="175" depart="1260.00" from="right0C0" to="A1left1" departPos="random" departSpeed="max" type="civilianVehicles" departLane="best"/>
    <trip id="176" depart="1267.20" from="left1A1" to="C1right1" departPos="random" departSpeed="max" type="civilianVehicles" departLane="best"/>
    <trip id="177" depart="1274.40" from="right2C2" to="A0left0" departPos="random" departSpeed="max" type="civilianVehicles" departLane="best"/>
    <trip id="178" depart="1281.60" from="bottom0A0" to="C2top2" departPos="random" departSpeed="max" type="civilianVehicles" departLane="best"/>
    <trip id="179" depart="1288.80" from="left1A1" to="C0right0" departPos="random" departSpeed="max" type="civilianVehicles" departLane="best"/>
    <trip id="180" depart="1296.00" from="bottom0A0" to="C2right2" departPos="random" departSpeed="max" type="civilianVehicles" departLane="best"/>
    <trip id="181" depart="1303.20" from="left1A1" to="C1right1" departPos="random" departSpeed="max" type="civilianVehicles" departLane="best"/>
    <trip id="182" depart="1310.40" from="right1C1" to="A2left2" departPos="random" departSpeed="max" type="civilianVehicles" departLane="best"/>
    <trip id="183" depart="1317.60" from="left2A2" to="C1right1" departPos="random" departSpeed="max" type="civilianVehicles" departLane="best"/>
    <trip id="184" depart="1324.80" from="bottom1B0" to="B2top1" departPos="random" departSpeed="max" type="civilianVehicles" departLane="best"/>
    <trip id="185" depart="1332.00" from="right1C1" to="A1left1" departPos="random" departSpeed="max" type="civilianVehicles" departLane="best"/>
    <trip id="186" depart="1339.20" from="bottom2C0" to="B2top1" departPos="random" departSpeed="max" type="civilianVehicles" departLane="best"/>
    <trip id="187" depart="1346.40" from="top2C2" to="C0bottom2" departPos="random" departSpeed="max" type="civilianVehicles" departLane="best"/>
    <trip id="188" depart="1353.60" from="bottom0A0" to="C2top2" departPos="random" departSpeed="max" type="civilianVehicles" departLane="best"/>
    <trip id="189" depart="1360.80" from="top1B2" to="B0bottom1" departPos="random" departSpeed="max" type="civilianVehicles" departLane="best"/>
    <trip id="190" depart="1368.00" from="top0A2" to="C0right0" departPos="random" departSpeed="max" type="civilianVehicles" departLane="best"/>
    <trip id="191" depart="1375.20" from="left2A2" to="C2right2" departPos="random" departSpeed="max" type="civilianVehicles" departLane="best"/>
    <trip id="192" depart="1382.40" from="top1B2" to="C0bottom2" departPos="random" departSpeed="max" type="civilianVehicles" departLane="best"/>
    <trip id="193" depart="1389.60" from="top1B2" to="B0bottom1" departPos="random" departSpeed="max" type="civilianVehicles" departLane="best"/>
    <trip id="194" depart="1396.80" from="right2C2" to="A1left1" departPos="random" departSpeed="max" type="civilianVehicles" departLane="best"/>
    <trip id="195" depart="1404.00" from="bottom2C0" to="C2top2" departPos="random" departSpeed="max" type="civilianVehicles" departLane="best"/>
    <trip id="196" depart="1411.20" from="top2C2" to="A0bottom0" departPos="random" departSpeed="max" type="civilianVehicles" departLane="best"/>
    <trip id="197" depart="1418.40" from="top0A2" to="C0bottom2" departPos="random" departSpeed="max" type="civilianVehicles" departLane="best"/>
    <trip id="198" depart="1425.60" from="bottom2C0" to="C2top2" departPos="random" departSpeed="max" type="civilianVehicles" departLane="best"/>
    <trip id="199" depart="1432.80" from="top0A2" to="C0bottom2" departPos="random" departSpeed="max" type="civilianVehicles" departLane="best"/>
    <trip id="200" depart="1440.00" from="top0A2" to="C0right0" departPos="random" departSpeed="max" type="civilianVehicles" departLane="best"/>
    <trip id="201" depart="1447.20" from="top2C2" to="C0bottom2" departPos="random" departSpeed="max" type="civilianVehicles" departLane="best"/>