<additional>
  <edgeData id="vehData" file="../../output/data/edgeData_vehs.xml" />
</additional>